
     RDKit          3D

 25 26  0  0  0  0  0  0  0  0999 V2000
    4.8030   -0.7343   -0.9061 C   0  0  0  0  0  0  0  0  0  0  0  0
    5.2540    0.0850    0.1016 C   0  0  0  0  0  0  0  0  0  0  0  0
    3.9799    0.6336    1.0959 S   0  0  0  0  0  0  0  0  0  0  0  0
    2.7929   -0.2221    0.1884 C   0  0  0  0  0  0  0  0  0  0  0  0
    3.3881   -0.9100   -0.8565 C   0  0  0  0  0  0  0  0  0  0  0  0
    1.3884   -0.1667    0.5391 C   0  0  0  0  0  0  0  0  0  0  0  0
    0.8251    0.2181    1.7437 C   0  0  0  0  0  0  0  0  0  0  0  0
   -0.6005    0.1622    1.7403 C   0  0  0  0  0  0  0  0  0  0  0  0
   -1.0986   -0.2577    0.5265 C   0  0  0  0  0  0  0  0  0  0  0  0
   -2.5269   -0.4358    0.1179 C   0  0  0  0  0  0  0  0  0  0  0  0
   -3.0277    0.7709   -0.6751 C   0  0  0  0  0  0  0  0  0  0  0  0
   -4.4460    0.5710   -1.0791 N   0  0  0  0  0  4  0  0  0  0  0  0
    0.1589   -0.5993   -0.5812 S   0  0  0  0  0  0  0  0  0  0  0  0
    5.4555   -1.1888   -1.6422 H   0  0  0  0  0  0  0  0  0  0  0  0
    6.2729    0.3871    0.3039 H   0  0  0  0  0  0  0  0  0  0  0  0
    2.8444   -1.5269   -1.5615 H   0  0  0  0  0  0  0  0  0  0  0  0
    1.4078    0.5217    2.6067 H   0  0  0  0  0  0  0  0  0  0  0  0
   -1.2119    0.4179    2.5985 H   0  0  0  0  0  0  0  0  0  0  0  0
   -3.1475   -0.5716    1.0129 H   0  0  0  0  0  0  0  0  0  0  0  0
   -2.6394   -1.3519   -0.4760 H   0  0  0  0  0  0  0  0  0  0  0  0
   -2.9969    1.6903   -0.0814 H   0  0  0  0  0  0  0  0  0  0  0  0
   -2.4616    0.9240   -1.5993 H   0  0  0  0  0  0  0  0  0  0  0  0
   -4.5583   -0.2564   -1.6808 H   0  0  0  0  0  0  0  0  0  0  0  0
   -4.7885    1.3812   -1.6135 H   0  0  0  0  0  0  0  0  0  0  0  0
   -5.0670    0.4585   -0.2666 H   0  0  0  0  0  0  0  0  0  0  0  0
  1  2  2  0
  2  3  1  0
  3  4  1  0
  4  5  2  0
  4  6  1  0
  6  7  2  0
  7  8  1  0
  8  9  2  0
  9 10  1  0
 10 11  1  0
 11 12  1  0
  9 13  1  0
  5  1  1  0
 13  6  1  0
  1 14  1  0
  2 15  1  0
  5 16  1  0
  7 17  1  0
  8 18  1  0
 10 19  1  0
 10 20  1  0
 11 21  1  0
 11 22  1  0
 12 23  1  0
 12 24  1  0
 12 25  1  0
M  CHG  1  12   1
M  END
