
     RDKit          3D

 22 21  0  0  0  0  0  0  0  0999 V2000
   -1.2886   -0.4132   -0.8006 C   0  0  0  0  0  0  0  0  0  0  0  0
   -0.0190   -0.1752    0.0155 C   0  0  0  0  0  0  0  0  0  0  0  0
    1.2557   -0.2839   -0.8225 C   0  0  0  0  0  0  0  0  0  0  0  0
    2.7121    0.0540    0.1575 P   0  0  0  0  0  0  0  0  0  0  0  0
    2.7269   -0.5692    1.5105 O   0  0  0  0  0  0  0  0  0  0  0  0
    2.8422    1.6492    0.1748 O   0  0  0  0  0  0  0  0  0  0  0  0
    3.9723   -0.3279   -0.7428 O   0  0  0  0  0  0  0  0  0  0  0  0
   -2.5286   -0.6297    0.0638 C   0  0  0  0  0  0  0  0  0  0  0  0
   -2.7780    0.5364    0.9426 N   0  0  0  0  0  4  0  0  0  0  0  0
   -1.4493    0.4346   -1.4779 H   0  0  0  0  0  0  0  0  0  0  0  0
   -1.1573   -1.3006   -1.4315 H   0  0  0  0  0  0  0  0  0  0  0  0
    0.0370   -0.9042    0.8330 H   0  0  0  0  0  0  0  0  0  0  0  0
   -0.0522    0.8161    0.4822 H   0  0  0  0  0  0  0  0  0  0  0  0
    1.3362   -1.3021   -1.2193 H   0  0  0  0  0  0  0  0  0  0  0  0
    1.2165    0.3974   -1.6789 H   0  0  0  0  0  0  0  0  0  0  0  0
    2.7568    2.0864   -0.6930 H   0  0  0  0  0  0  0  0  0  0  0  0
    4.8070   -0.3023   -0.2314 H   0  0  0  0  0  0  0  0  0  0  0  0
   -3.4202   -0.7527   -0.5581 H   0  0  0  0  0  0  0  0  0  0  0  0
   -2.4217   -1.5016    0.7162 H   0  0  0  0  0  0  0  0  0  0  0  0
   -3.6547    0.4162    1.4680 H   0  0  0  0  0  0  0  0  0  0  0  0
   -2.0321    0.6598    1.6414 H   0  0  0  0  0  0  0  0  0  0  0  0
   -2.8609    1.4124    0.4106 H   0  0  0  0  0  0  0  0  0  0  0  0
  1  2  1  0
  2  3  1  0
  3  4  1  0
  4  5  2  0
  4  6  1  0
  4  7  1  0
  1  8  1  0
  8  9  1  0
  1 10  1  0
  1 11  1  0
  2 12  1  0
  2 13  1  0
  3 14  1  0
  3 15  1  0
  6 16  1  0
  7 17  1  0
  8 18  1  0
  8 19  1  0
  9 20  1  0
  9 21  1  0
  9 22  1  0
M  CHG  1   9   1
M  END
