
     RDKit          3D

 21 20  0  0  0  0  0  0  0  0999 V2000
   -2.4467   -0.3074    0.6004 C   0  0  0  0  0  0  0  0  0  0  0  0
   -1.3034    0.5254    0.1873 N   0  0  0  0  0  0  0  0  0  0  0  0
   -1.7543    1.7807   -0.4390 C   0  0  0  0  0  0  0  0  0  0  0  0
   -0.2665   -0.1240   -0.4266 C   0  0  0  0  0  0  0  0  0  0  0  0
   -0.3157   -0.6840   -1.5843 N   0  0  0  0  0  0  0  0  0  0  0  0
    0.8648   -0.1239    0.3272 N   0  0  0  0  0  0  0  0  0  0  0  0
    2.0659   -0.6631    0.0440 C   0  0  0  0  0  0  0  0  0  0  0  0
    2.4673   -1.3054   -0.9789 N   0  0  0  0  0  0  0  0  0  0  0  0
    3.1419   -0.5660    0.9558 N   0  0  0  0  0  4  0  0  0  0  0  0
   -2.0952   -1.1869    1.1506 H   0  0  0  0  0  0  0  0  0  0  0  0
   -3.0226   -0.6439   -0.2684 H   0  0  0  0  0  0  0  0  0  0  0  0
   -3.1083    0.2567    1.2661 H   0  0  0  0  0  0  0  0  0  0  0  0
   -2.4225    2.3251    0.2365 H   0  0  0  0  0  0  0  0  0  0  0  0
   -0.8964    2.4285   -0.6491 H   0  0  0  0  0  0  0  0  0  0  0  0
   -2.2838    1.5842   -1.3774 H   0  0  0  0  0  0  0  0  0  0  0  0
   -1.2591   -0.5653   -1.9743 H   0  0  0  0  0  0  0  0  0  0  0  0
    0.7201    0.3592    1.2014 H   0  0  0  0  0  0  0  0  0  0  0  0
    1.6454   -1.3544   -1.6248 H   0  0  0  0  0  0  0  0  0  0  0  0
    2.9493   -1.0696    1.8187 H   0  0  0  0  0  0  0  0  0  0  0  0
    3.8837   -1.0651    0.4472 H   0  0  0  0  0  0  0  0  0  0  0  0
    3.4362    0.3990    1.0877 H   0  0  0  0  0  0  0  0  0  0  0  0
  1  2  1  0
  2  3  1  0
  2  4  1  0
  4  5  2  3
  4  6  1  0
  6  7  1  0
  7  8  2  3
  7  9  1  0
  1 10  1  0
  1 11  1  0
  1 12  1  0
  3 13  1  0
  3 14  1  0
  3 15  1  0
  5 16  1  0
  6 17  1  0
  8 18  1  0
  9 19  1  0
  9 20  1  0
  9 21  1  0
M  CHG  1   9   1
M  END
