
     RDKit          3D

 11 10  0  0  0  0  0  0  0  0999 V2000
    1.2447   -0.1160    0.0932 C   0  0  0  0  0  0  0  0  0  0  0  0
   -0.0580    0.6180   -0.1376 C   0  0  0  0  0  0  0  0  0  0  0  0
   -1.1856   -0.3319    0.0075 N   0  0  0  0  0  4  0  0  0  0  0  0
    2.0897    0.5718   -0.0103 H   0  0  0  0  0  0  0  0  0  0  0  0
    1.2821   -0.5494    1.0981 H   0  0  0  0  0  0  0  0  0  0  0  0
    1.3765   -0.9258   -0.6320 H   0  0  0  0  0  0  0  0  0  0  0  0
   -0.2104    1.4124    0.5981 H   0  0  0  0  0  0  0  0  0  0  0  0
   -0.1151    1.0325   -1.1478 H   0  0  0  0  0  0  0  0  0  0  0  0
   -1.2122   -0.7489    0.9476 H   0  0  0  0  0  0  0  0  0  0  0  0
   -2.0877    0.1385   -0.1441 H   0  0  0  0  0  0  0  0  0  0  0  0
   -1.1238   -1.1014   -0.6726 H   0  0  0  0  0  0  0  0  0  0  0  0
  1  2  1  0
  2  3  1  0
  1  4  1  0
  1  5  1  0
  1  6  1  0
  2  7  1  0
  2  8  1  0
  3  9  1  0
  3 10  1  0
  3 11  1  0
M  CHG  1   3   1
M  END
