
     RDKit          3D

  7  6  0  0  0  0  0  0  0  0999 V2000
   -0.5724    0.0571   -0.0133 N   0  0  0  0  0  4  0  0  0  0  0  0
    0.8141   -0.0946   -0.2846 N   0  0  0  0  0  0  0  0  0  0  0  0
   -0.7948    0.1240    0.9958 H   0  0  0  0  0  0  0  0  0  0  0  0
   -1.1249   -0.7334   -0.3944 H   0  0  0  0  0  0  0  0  0  0  0  0
   -0.9597    0.9056   -0.4666 H   0  0  0  0  0  0  0  0  0  0  0  0
    1.4009    0.6854    0.0457 H   0  0  0  0  0  0  0  0  0  0  0  0
    1.2367   -0.9440    0.1174 H   0  0  0  0  0  0  0  0  0  0  0  0
  1  2  1  0
  1  3  1  0
  1  4  1  0
  1  5  1  0
  2  6  1  0
  2  7  1  0
M  CHG  1   1   1
M  END
