
     RDKit          3D

 57 56  0  0  0  0  0  0  0  0999 V2000
    5.1384    1.5946    1.8208 C   0  0  0  0  0  0  0  0  0  0  0  0
    5.8111    0.2417    1.9983 C   0  0  0  0  0  0  0  0  0  0  0  0
    5.4620   -0.7614    0.8957 C   0  0  0  0  0  0  0  0  0  0  0  0
    3.9838   -1.1579    0.8897 C   0  0  0  0  0  0  0  0  0  0  0  0
    3.6609   -2.2811   -0.1010 C   0  0  0  0  0  0  0  0  0  0  0  0
    3.9735   -1.9818   -1.5714 C   0  0  0  0  0  0  0  0  0  0  0  0
    3.3481   -0.7044   -2.1405 C   0  0  0  0  0  0  0  0  0  0  0  0
    1.8204   -0.6923   -2.0726 C   0  0  0  0  0  0  0  0  0  0  0  0
    1.2589    0.5367   -2.7311 C   0  0  0  0  0  0  0  0  0  0  0  0
    0.7701    1.6303   -2.1237 C   0  0  0  0  0  0  0  0  0  0  0  0
    0.7254    1.9072   -0.6469 C   0  0  0  0  0  0  0  0  0  0  0  0
   -0.6999    1.9188   -0.0867 C   0  0  0  0  0  0  0  0  0  0  0  0
   -1.3526    0.5331   -0.0865 C   0  0  0  0  0  0  0  0  0  0  0  0
   -2.7584    0.5812    0.5175 C   0  0  0  0  0  0  0  0  0  0  0  0
   -3.4041   -0.8063    0.5232 C   0  0  0  0  0  0  0  0  0  0  0  0
   -4.7839   -0.8332    1.1867 C   0  0  0  0  0  0  0  0  0  0  0  0
   -5.8451   -0.0501    0.4109 C   0  0  0  0  0  0  0  0  0  0  0  0
   -7.2176   -0.2144    1.0485 C   0  0  0  0  0  0  0  0  0  0  0  0
   -8.2118    0.5584    0.2652 N   0  0  0  0  0  4  0  0  0  0  0  0
    5.3549    2.0152    0.8337 H   0  0  0  0  0  0  0  0  0  0  0  0
    5.5041    2.2973    2.5764 H   0  0  0  0  0  0  0  0  0  0  0  0
    4.0530    1.5214    1.9356 H   0  0  0  0  0  0  0  0  0  0  0  0
    5.5460   -0.1721    2.9781 H   0  0  0  0  0  0  0  0  0  0  0  0
    6.8976    0.3903    2.0006 H   0  0  0  0  0  0  0  0  0  0  0  0
    5.7458   -0.3383   -0.0745 H   0  0  0  0  0  0  0  0  0  0  0  0
    6.0738   -1.6600    1.0419 H   0  0  0  0  0  0  0  0  0  0  0  0
    3.7009   -1.4988    1.8936 H   0  0  0  0  0  0  0  0  0  0  0  0
    3.3572   -0.2870    0.6722 H   0  0  0  0  0  0  0  0  0  0  0  0
    2.5996   -2.5388   -0.0014 H   0  0  0  0  0  0  0  0  0  0  0  0
    4.2155   -3.1820    0.1912 H   0  0  0  0  0  0  0  0  0  0  0  0
    3.6415   -2.8371   -2.1737 H   0  0  0  0  0  0  0  0  0  0  0  0
    5.0607   -1.9259   -1.7053 H   0  0  0  0  0  0  0  0  0  0  0  0
    3.7525    0.1725   -1.6209 H   0  0  0  0  0  0  0  0  0  0  0  0
    3.6655   -0.6100   -3.1873 H   0  0  0  0  0  0  0  0  0  0  0  0
    1.4785   -0.7684   -1.0364 H   0  0  0  0  0  0  0  0  0  0  0  0
    1.4180   -1.5722   -2.5895 H   0  0  0  0  0  0  0  0  0  0  0  0
    1.2495    0.5139   -3.8208 H   0  0  0  0  0  0  0  0  0  0  0  0
    0.3934    2.4330   -2.7575 H   0  0  0  0  0  0  0  0  0  0  0  0
    1.3426    1.2036   -0.0791 H   0  0  0  0  0  0  0  0  0  0  0  0
    1.1733    2.8953   -0.4827 H   0  0  0  0  0  0  0  0  0  0  0  0
   -1.3199    2.6207   -0.6582 H   0  0  0  0  0  0  0  0  0  0  0  0
   -0.6631    2.2963    0.9427 H   0  0  0  0  0  0  0  0  0  0  0  0
   -1.4155    0.1454   -1.1097 H   0  0  0  0  0  0  0  0  0  0  0  0
   -0.7295   -0.1638    0.4870 H   0  0  0  0  0  0  0  0  0  0  0  0
   -3.3711    1.2802   -0.0624 H   0  0  0  0  0  0  0  0  0  0  0  0
   -2.7061    0.9664    1.5429 H   0  0  0  0  0  0  0  0  0  0  0  0
   -2.7505   -1.5013    1.0651 H   0  0  0  0  0  0  0  0  0  0  0  0
   -3.4829   -1.1836   -0.5036 H   0  0  0  0  0  0  0  0  0  0  0  0
   -4.7093   -0.4445    2.2095 H   0  0  0  0  0  0  0  0  0  0  0  0
   -5.1020   -1.8800    1.2694 H   0  0  0  0  0  0  0  0  0  0  0  0
   -5.8747   -0.4011   -0.6281 H   0  0  0  0  0  0  0  0  0  0  0  0
   -5.5831    1.0137    0.3850 H   0  0  0  0  0  0  0  0  0  0  0  0
   -7.5509   -1.2564    1.0431 H   0  0  0  0  0  0  0  0  0  0  0  0
   -7.2445    0.1765    2.0700 H   0  0  0  0  0  0  0  0  0  0  0  0
   -8.2642    0.2314   -0.7087 H   0  0  0  0  0  0  0  0  0  0  0  0
   -9.1533    0.4678    0.6696 H   0  0  0  0  0  0  0  0  0  0  0  0
   -7.9821    1.5611    0.2448 H   0  0  0  0  0  0  0  0  0  0  0  0
  1  2  1  0
  2  3  1  0
  3  4  1  0
  4  5  1  0
  5  6  1  0
  6  7  1  0
  7  8  1  0
  8  9  1  0
  9 10  2  0
 10 11  1  0
 11 12  1  0
 12 13  1  0
 13 14  1  0
 14 15  1  0
 15 16  1  0
 16 17  1  0
 17 18  1  0
 18 19  1  0
  1 20  1  0
  1 21  1  0
  1 22  1  0
  2 23  1  0
  2 24  1  0
  3 25  1  0
  3 26  1  0
  4 27  1  0
  4 28  1  0
  5 29  1  0
  5 30  1  0
  6 31  1  0
  6 32  1  0
  7 33  1  0
  7 34  1  0
  8 35  1  0
  8 36  1  0
  9 37  1  0
 10 38  1  0
 11 39  1  0
 11 40  1  0
 12 41  1  0
 12 42  1  0
 13 43  1  0
 13 44  1  0
 14 45  1  0
 14 46  1  0
 15 47  1  0
 15 48  1  0
 16 49  1  0
 16 50  1  0
 17 51  1  0
 17 52  1  0
 18 53  1  0
 18 54  1  0
 19 55  1  0
 19 56  1  0
 19 57  1  0
M  CHG  1  19   1
M  END
