
     RDKit          3D

 18 18  0  0  0  0  0  0  0  0999 V2000
    0.4887    1.4107    0.0879 C   0  0  0  0  0  0  0  0  0  0  0  0
    1.2904    0.1724    0.4924 C   0  0  0  0  0  0  0  0  0  0  0  0
    0.9833   -1.0123   -0.4044 C   0  0  0  0  0  0  0  0  0  0  0  0
   -0.4715   -1.3611   -0.3157 N   0  0  0  0  0  4  0  0  0  0  0  0
   -1.4164   -0.2380   -0.0128 C   0  0  0  0  0  0  0  0  0  0  0  0
   -0.8604    1.0688   -0.5467 C   0  0  0  0  0  0  0  0  0  0  0  0
    1.0679    2.0162   -0.6197 H   0  0  0  0  0  0  0  0  0  0  0  0
    0.3365    2.0375    0.9748 H   0  0  0  0  0  0  0  0  0  0  0  0
    1.0561   -0.0882    1.5325 H   0  0  0  0  0  0  0  0  0  0  0  0
    2.3613    0.4029    0.4637 H   0  0  0  0  0  0  0  0  0  0  0  0
    1.1941   -0.7859   -1.4550 H   0  0  0  0  0  0  0  0  0  0  0  0
    1.5430   -1.9057   -0.1123 H   0  0  0  0  0  0  0  0  0  0  0  0
   -0.7501   -1.8047   -1.2021 H   0  0  0  0  0  0  0  0  0  0  0  0
   -0.5993   -2.0902    0.3999 H   0  0  0  0  0  0  0  0  0  0  0  0
   -1.5383   -0.2077    1.0753 H   0  0  0  0  0  0  0  0  0  0  0  0
   -2.3750   -0.4958   -0.4724 H   0  0  0  0  0  0  0  0  0  0  0  0
   -0.7416    0.9959   -1.6354 H   0  0  0  0  0  0  0  0  0  0  0  0
   -1.5686    1.8852   -0.3657 H   0  0  0  0  0  0  0  0  0  0  0  0
  1  2  1  0
  2  3  1  0
  3  4  1  0
  4  5  1  0
  5  6  1  0
  6  1  1  0
  1  7  1  0
  1  8  1  0
  2  9  1  0
  2 10  1  0
  3 11  1  0
  3 12  1  0
  4 13  1  0
  4 14  1  0
  5 15  1  0
  5 16  1  0
  6 17  1  0
  6 18  1  0
M  CHG  1   4   1
M  END
