
     RDKit          3D

 18 18  0  0  0  0  0  0  0  0999 V2000
   -1.2898    0.7118    0.0010 C   0  0  0  0  0  0  0  0  0  0  0  0
    0.0274    1.4494   -0.2293 C   0  0  0  0  0  0  0  0  0  0  0  0
    1.1931    0.7383    0.4404 C   0  0  0  0  0  0  0  0  0  0  0  0
    1.2367   -0.6805   -0.0248 N   0  0  0  0  0  4  0  0  0  0  0  0
   -0.0137   -1.4482    0.2549 C   0  0  0  0  0  0  0  0  0  0  0  0
   -1.1886   -0.7537   -0.4162 C   0  0  0  0  0  0  0  0  0  0  0  0
   -2.0928    1.2026   -0.5602 H   0  0  0  0  0  0  0  0  0  0  0  0
   -1.5588    0.7702    1.0630 H   0  0  0  0  0  0  0  0  0  0  0  0
   -0.0504    2.4725    0.1551 H   0  0  0  0  0  0  0  0  0  0  0  0
    0.2153    1.5273   -1.3075 H   0  0  0  0  0  0  0  0  0  0  0  0
    2.1505    1.1931    0.1702 H   0  0  0  0  0  0  0  0  0  0  0  0
    1.0947    0.7213    1.5308 H   0  0  0  0  0  0  0  0  0  0  0  0
    1.4346   -0.7040   -1.0350 H   0  0  0  0  0  0  0  0  0  0  0  0
    2.0311   -1.1570    0.4237 H   0  0  0  0  0  0  0  0  0  0  0  0
   -0.1300   -1.4976    1.3425 H   0  0  0  0  0  0  0  0  0  0  0  0
    0.1355   -2.4575   -0.1395 H   0  0  0  0  0  0  0  0  0  0  0  0
   -1.0765   -0.8132   -1.5061 H   0  0  0  0  0  0  0  0  0  0  0  0
   -2.1186   -1.2746   -0.1628 H   0  0  0  0  0  0  0  0  0  0  0  0
  1  2  1  0
  2  3  1  0
  3  4  1  0
  4  5  1  0
  5  6  1  0
  6  1  1  0
  1  7  1  0
  1  8  1  0
  2  9  1  0
  2 10  1  0
  3 11  1  0
  3 12  1  0
  4 13  1  0
  4 14  1  0
  5 15  1  0
  5 16  1  0
  6 17  1  0
  6 18  1  0
M  CHG  1   4   1
M  END
