
     RDKit          3D

 18 18  0  0  0  0  0  0  0  0999 V2000
    3.0641    0.0025    0.1051 C   0  0  0  0  0  0  0  0  0  0  0  0
    2.9381   -0.9314   -0.8983 C   0  0  0  0  0  0  0  0  0  0  0  0
    1.3332   -1.0405   -1.4730 S   0  0  0  0  0  0  0  0  0  0  0  0
    0.7907    0.1594   -0.3751 C   0  0  0  0  0  0  0  0  0  0  0  0
    1.8236    0.6364    0.4068 C   0  0  0  0  0  0  0  0  0  0  0  0
   -0.6496    0.5643   -0.3634 C   0  0  0  0  0  0  0  0  0  0  0  0
   -1.4987   -0.4379    0.4173 C   0  0  0  0  0  0  0  0  0  0  0  0
   -2.9284   -0.0248    0.4019 N   0  0  0  0  0  4  0  0  0  0  0  0
    4.0064    0.2249    0.5934 H   0  0  0  0  0  0  0  0  0  0  0  0
    3.7160   -1.5507   -1.3264 H   0  0  0  0  0  0  0  0  0  0  0  0
    1.7127    1.4094    1.1590 H   0  0  0  0  0  0  0  0  0  0  0  0
   -0.7449    1.5593    0.0899 H   0  0  0  0  0  0  0  0  0  0  0  0
   -1.0236    0.6577   -1.3910 H   0  0  0  0  0  0  0  0  0  0  0  0
   -1.1991   -0.4941    1.4688 H   0  0  0  0  0  0  0  0  0  0  0  0
   -1.4628   -1.4414   -0.0180 H   0  0  0  0  0  0  0  0  0  0  0  0
   -3.0682    0.8990    0.8324 H   0  0  0  0  0  0  0  0  0  0  0  0
   -3.5058   -0.6960    0.9266 H   0  0  0  0  0  0  0  0  0  0  0  0
   -3.3035    0.0118   -0.5559 H   0  0  0  0  0  0  0  0  0  0  0  0
  1  2  2  0
  2  3  1  0
  3  4  1  0
  4  5  2  0
  4  6  1  0
  6  7  1  0
  7  8  1  0
  5  1  1  0
  1  9  1  0
  2 10  1  0
  5 11  1  0
  6 12  1  0
  6 13  1  0
  7 14  1  0
  7 15  1  0
  8 16  1  0
  8 17  1  0
  8 18  1  0
M  CHG  1   8   1
M  END
