
     RDKit          3D

 18 16  0  0  0  0  0  0  0  0999 V2000
   -0.0332   -0.0797    0.1916 C   0  0  0  0  0  0  0  0  0  0  0  0
   -1.1927    0.1732   -0.7579 C   0  0  0  0  0  0  0  0  0  0  0  0
   -2.4694    0.1452   -0.0960 N   0  0  0  0  0  4  0  0  0  0  0  0
    1.2207   -0.0120   -0.6827 C   0  0  0  0  0  0  0  0  0  0  0  0
    2.4279   -0.2401    0.1108 N   0  0  0  0  0  4  0  0  0  0  0  0
    0.0000    0.0000    0.0000 I   0  0  0  0  0 15  0  0  0  0  0  0
    0.0057    0.6405    1.0108 H   0  0  0  0  0  0  0  0  0  0  0  0
   -0.0947   -1.0869    0.6518 H   0  0  0  0  0  0  0  0  0  0  0  0
   -1.0077    1.1677   -1.2180 H   0  0  0  0  0  0  0  0  0  0  0  0
   -1.0873   -0.5624   -1.5796 H   0  0  0  0  0  0  0  0  0  0  0  0
   -2.3202    0.3218    0.9231 H   0  0  0  0  0  0  0  0  0  0  0  0
   -2.9774   -0.7551   -0.2621 H   0  0  0  0  0  0  0  0  0  0  0  0
   -3.0407    0.9297   -0.4870 H   0  0  0  0  0  0  0  0  0  0  0  0
    1.3235    0.9955   -1.1322 H   0  0  0  0  0  0  0  0  0  0  0  0
    1.2005   -0.8068   -1.4410 H   0  0  0  0  0  0  0  0  0  0  0  0
    2.4164    0.4048    0.9278 H   0  0  0  0  0  0  0  0  0  0  0  0
    2.4120   -1.2374    0.4130 H   0  0  0  0  0  0  0  0  0  0  0  0
    3.2166    0.0020   -0.5028 H   0  0  0  0  0  0  0  0  0  0  0  0
  1  2  1  0
  2  3  1  0
  1  4  1  0
  4  5  1  0
  1  7  1  0
  1  8  1  0
  2  9  1  0
  2 10  1  0
  3 11  1  0
  3 12  1  0
  3 13  1  0
  4 14  1  0
  4 15  1  0
  5 16  1  0
  5 17  1  0
  5 18  1  0
M  CHG  3   3   1   5   1   6  -1
M  END
