
     RDKit          3D

 12 12  0  0  0  0  0  0  0  0999 V2000
   -1.0454   -0.4133    0.5215 C   0  0  0  0  0  0  0  0  0  0  0  0
   -0.9084    0.6640   -0.5192 C   0  0  0  0  0  0  0  0  0  0  0  0
    0.1423   -0.3979   -0.3931 C   0  0  0  0  0  0  0  0  0  0  0  0
    1.4219    0.0026    0.1899 N   0  0  0  0  0  4  0  0  0  0  0  0
   -0.9409   -0.1279    1.5621 H   0  0  0  0  0  0  0  0  0  0  0  0
   -1.8063   -1.1718    0.3594 H   0  0  0  0  0  0  0  0  0  0  0  0
   -0.7117    1.6743   -0.1788 H   0  0  0  0  0  0  0  0  0  0  0  0
   -1.5781    0.6223   -1.3737 H   0  0  0  0  0  0  0  0  0  0  0  0
    0.1783   -1.1562   -1.1734 H   0  0  0  0  0  0  0  0  0  0  0  0
    1.3059    0.7199    0.9171 H   0  0  0  0  0  0  0  0  0  0  0  0
    1.8955   -0.8034    0.6192 H   0  0  0  0  0  0  0  0  0  0  0  0
    2.0469    0.3873   -0.5309 H   0  0  0  0  0  0  0  0  0  0  0  0
  1  2  1  0
  2  3  1  0
  3  4  1  0
  3  1  1  0
  1  5  1  0
  1  6  1  0
  2  7  1  0
  2  8  1  0
  3  9  1  0
  4 10  1  0
  4 11  1  0
  4 12  1  0
M  CHG  1   4   1
M  END
