
     RDKit          3D

 21 20  0  0  0  0  0  0  0  0999 V2000
   -1.1628   -0.7081    1.0179 C   0  0  0  0  0  0  0  0  0  0  0  0
   -0.6099    0.0090   -0.2060 N   0  0  0  0  0  4  0  0  0  0  0  0
   -0.7712    1.5143   -0.0446 C   0  0  0  0  0  0  0  0  0  0  0  0
   -1.4197   -0.4332   -1.4294 C   0  0  0  0  0  0  0  0  0  0  0  0
    0.8610   -0.3722   -0.4612 C   0  0  0  0  0  0  0  0  0  0  0  0
    1.8346   -0.0042    0.6676 C   0  0  0  0  0  0  0  0  0  0  0  0
    3.1410   -0.4162    0.2871 O   0  0  0  0  0  0  0  0  0  0  0  0
   -0.9902   -1.7816    0.8986 H   0  0  0  0  0  0  0  0  0  0  0  0
   -2.2345   -0.4978    1.0867 H   0  0  0  0  0  0  0  0  0  0  0  0
   -0.6549   -0.3302    1.9087 H   0  0  0  0  0  0  0  0  0  0  0  0
   -1.8397    1.7428    0.0155 H   0  0  0  0  0  0  0  0  0  0  0  0
   -0.3227    2.0063   -0.9124 H   0  0  0  0  0  0  0  0  0  0  0  0
   -0.2749    1.8262    0.8778 H   0  0  0  0  0  0  0  0  0  0  0  0
   -1.3119   -1.5160   -1.5427 H   0  0  0  0  0  0  0  0  0  0  0  0
   -1.0294    0.0872   -2.3091 H   0  0  0  0  0  0  0  0  0  0  0  0
   -2.4689   -0.1698   -1.2651 H   0  0  0  0  0  0  0  0  0  0  0  0
    0.8902   -1.4543   -0.6414 H   0  0  0  0  0  0  0  0  0  0  0  0
    1.1675    0.1189   -1.3935 H   0  0  0  0  0  0  0  0  0  0  0  0
    1.8589    1.0749    0.8403 H   0  0  0  0  0  0  0  0  0  0  0  0
    1.5789   -0.5143    1.5999 H   0  0  0  0  0  0  0  0  0  0  0  0
    3.7584   -0.1817    1.0056 H   0  0  0  0  0  0  0  0  0  0  0  0
  1  2  1  0
  2  3  1  0
  2  4  1  0
  2  5  1  0
  5  6  1  0
  6  7  1  0
  1  8  1  0
  1  9  1  0
  1 10  1  0
  3 11  1  0
  3 12  1  0
  3 13  1  0
  4 14  1  0
  4 15  1  0
  4 16  1  0
  5 17  1  0
  5 18  1  0
  6 19  1  0
  6 20  1  0
  7 21  1  0
M  CHG  1   2   1
M  END
