
     RDKit          3D

 20 21  0  0  0  0  0  0  0  0999 V2000
   -0.6307    2.1392   -0.3878 C   0  0  0  0  0  0  0  0  0  0  0  0
    0.6349    1.5642   -0.2539 C   0  0  0  0  0  0  0  0  0  0  0  0
    0.7712    0.1868   -0.0125 C   0  0  0  0  0  0  0  0  0  0  0  0
   -0.3785   -0.6128    0.0911 C   0  0  0  0  0  0  0  0  0  0  0  0
   -1.6366   -0.0182   -0.0521 C   0  0  0  0  0  0  0  0  0  0  0  0
   -1.7727    1.3483   -0.2851 C   0  0  0  0  0  0  0  0  0  0  0  0
   -2.8273   -0.8270    0.0599 N   0  0  0  0  0  4  0  0  0  0  0  0
    2.0730   -0.3635    0.1226 N   0  0  0  0  0  0  0  0  0  0  0  0
    2.4589   -1.6579    0.3583 C   0  0  0  0  0  0  0  0  0  0  0  0
    3.7688   -1.7167    0.4084 N   0  0  0  0  0  0  0  0  0  0  0  0
    4.2065   -0.4366    0.2004 N   0  0  0  0  0  0  0  0  0  0  0  0
    3.1868    0.3914    0.0261 N   0  0  0  0  0  0  0  0  0  0  0  0
   -0.7166    3.2104   -0.5714 H   0  0  0  0  0  0  0  0  0  0  0  0
    1.5086    2.2140   -0.3397 H   0  0  0  0  0  0  0  0  0  0  0  0
   -0.3029   -1.6788    0.2826 H   0  0  0  0  0  0  0  0  0  0  0  0
   -2.7445    1.8254   -0.3884 H   0  0  0  0  0  0  0  0  0  0  0  0
   -3.1423   -0.8523    1.0382 H   0  0  0  0  0  0  0  0  0  0  0  0
   -2.6622   -1.7865   -0.2651 H   0  0  0  0  0  0  0  0  0  0  0  0
   -3.5850   -0.4358   -0.5142 H   0  0  0  0  0  0  0  0  0  0  0  0
    1.7906   -2.4936    0.4826 H   0  0  0  0  0  0  0  0  0  0  0  0
  1  2  2  0
  2  3  1  0
  3  4  2  0
  4  5  1  0
  5  6  2  0
  5  7  1  0
  3  8  1  0
  8  9  1  0
  9 10  2  0
 10 11  1  0
 11 12  2  0
  6  1  1  0
 12  8  1  0
  1 13  1  0
  2 14  1  0
  4 15  1  0
  6 16  1  0
  7 17  1  0
  7 18  1  0
  7 19  1  0
  9 20  1  0
M  CHG  1   7   1
M  END
