
     RDKit          3D

 21 21  0  0  0  0  0  0  0  0999 V2000
    0.2691   -1.0659    0.0691 C   0  0  0  0  0  0  0  0  0  0  0  0
    0.8237    0.2084   -0.1142 C   0  0  0  0  0  0  0  0  0  0  0  0
   -0.0208    1.3237   -0.1862 C   0  0  0  0  0  0  0  0  0  0  0  0
   -1.4070    1.1643   -0.0809 C   0  0  0  0  0  0  0  0  0  0  0  0
   -1.9703   -0.1060    0.1059 C   0  0  0  0  0  0  0  0  0  0  0  0
   -1.1184   -1.2187    0.1723 C   0  0  0  0  0  0  0  0  0  0  0  0
   -3.4738   -0.2803    0.1953 C   0  0  0  0  0  0  0  0  0  0  0  0
   -4.1042    0.8182    0.6887 F   0  0  0  0  0  0  0  0  0  0  0  0
   -3.8306   -1.3172    1.0000 F   0  0  0  0  0  0  0  0  0  0  0  0
   -4.0282   -0.5300   -1.0195 F   0  0  0  0  0  0  0  0  0  0  0  0
    2.2876    0.3718   -0.2167 C   0  0  0  0  0  0  0  0  0  0  0  0
    2.9413    1.3699   -0.6744 N   0  0  0  0  0  0  0  0  0  0  0  0
    3.2220   -0.6182    0.2140 N   0  0  0  0  0  4  0  0  0  0  0  0
    0.8777   -1.9647    0.1196 H   0  0  0  0  0  0  0  0  0  0  0  0
    0.3639    2.3341   -0.3074 H   0  0  0  0  0  0  0  0  0  0  0  0
   -2.0540    2.0417   -0.1404 H   0  0  0  0  0  0  0  0  0  0  0  0
   -1.5434   -2.2157    0.3042 H   0  0  0  0  0  0  0  0  0  0  0  0
    2.3317    2.1180   -1.0299 H   0  0  0  0  0  0  0  0  0  0  0  0
    3.0714   -0.8868    1.1866 H   0  0  0  0  0  0  0  0  0  0  0  0
    3.2376   -1.4143   -0.4235 H   0  0  0  0  0  0  0  0  0  0  0  0
    4.1247   -0.1323    0.1372 H   0  0  0  0  0  0  0  0  0  0  0  0
  1  2  2  0
  2  3  1  0
  3  4  2  0
  4  5  1  0
  5  6  2  0
  5  7  1  0
  7  8  1  0
  7  9  1  0
  7 10  1  0
  2 11  1  0
 11 12  2  3
 11 13  1  0
  6  1  1  0
  1 14  1  0
  3 15  1  0
  4 16  1  0
  6 17  1  0
 12 18  1  0
 13 19  1  0
 13 20  1  0
 13 21  1  0
M  CHG  1  13   1
M  END
