
     RDKit          3D

 17 16  0  0  0  0  0  0  0  0999 V2000
   -0.4012   -0.5150   -0.5132 C   0  0  0  0  0  0  0  0  0  0  0  0
    1.0909   -0.8597   -0.5174 C   0  0  0  0  0  0  0  0  0  0  0  0
    1.9411    0.3825   -0.5016 C   0  0  0  0  0  0  0  0  0  0  0  0
    1.5302    1.5161   -0.3161 O   0  0  0  0  0  0  0  0  0  0  0  0
    3.2407    0.1132   -0.6871 O   0  0  0  0  0  0  0  0  0  0  0  0
   -0.8696    0.0329    0.8315 C   0  0  0  0  0  0  0  0  0  0  0  0
   -2.2778    0.4833    0.7056 N   0  0  0  0  0  4  0  0  0  0  0  0
   -0.9724   -1.4218   -0.7479 H   0  0  0  0  0  0  0  0  0  0  0  0
   -0.6154    0.2086   -1.3102 H   0  0  0  0  0  0  0  0  0  0  0  0
    1.3207   -1.4131   -1.4347 H   0  0  0  0  0  0  0  0  0  0  0  0
    1.3474   -1.4795    0.3478 H   0  0  0  0  0  0  0  0  0  0  0  0
    3.7154    0.9725   -0.6716 H   0  0  0  0  0  0  0  0  0  0  0  0
   -0.3036    0.9003    1.1759 H   0  0  0  0  0  0  0  0  0  0  0  0
   -0.8517   -0.7392    1.6066 H   0  0  0  0  0  0  0  0  0  0  0  0
   -2.9046   -0.2733    0.4028 H   0  0  0  0  0  0  0  0  0  0  0  0
   -2.6313    0.8394    1.6035 H   0  0  0  0  0  0  0  0  0  0  0  0
   -2.3589    1.2527    0.0262 H   0  0  0  0  0  0  0  0  0  0  0  0
  1  2  1  0
  2  3  1  0
  3  4  2  0
  3  5  1  0
  1  6  1  0
  6  7  1  0
  1  8  1  0
  1  9  1  0
  2 10  1  0
  2 11  1  0
  5 12  1  0
  6 13  1  0
  6 14  1  0
  7 15  1  0
  7 16  1  0
  7 17  1  0
M  CHG  1   7   1
M  END
