
     RDKit          3D

 27 27  0  0  0  0  0  0  0  0999 V2000
   -2.6407   -0.1619   -0.1107 C   0  0  0  0  0  0  0  0  0  0  0  0
   -1.5858   -0.7385    0.8289 C   0  0  0  0  0  0  0  0  0  0  0  0
   -0.4321    0.2394    1.0410 C   0  0  0  0  0  0  0  0  0  0  0  0
    0.2160    0.6919   -0.2779 C   0  0  0  0  0  0  0  0  0  0  0  0
   -0.8649    1.2576   -1.2196 C   0  0  0  0  0  0  0  0  0  0  0  0
   -2.0377    0.3010   -1.4333 C   0  0  0  0  0  0  0  0  0  0  0  0
    1.0329   -0.4154   -0.9837 C   0  0  0  0  0  0  0  0  0  0  0  0
    2.1762   -1.0233   -0.1761 C   0  0  0  0  0  0  0  0  0  0  0  0
    3.1504    0.0168    0.2261 N   0  0  0  0  0  4  0  0  0  0  0  0
   -3.4161   -0.9126   -0.3009 H   0  0  0  0  0  0  0  0  0  0  0  0
   -3.1343    0.6874    0.3779 H   0  0  0  0  0  0  0  0  0  0  0  0
   -2.0481   -0.9724    1.7948 H   0  0  0  0  0  0  0  0  0  0  0  0
   -1.2069   -1.6842    0.4247 H   0  0  0  0  0  0  0  0  0  0  0  0
   -0.8191    1.1259    1.5611 H   0  0  0  0  0  0  0  0  0  0  0  0
    0.3090   -0.2016    1.7149 H   0  0  0  0  0  0  0  0  0  0  0  0
    0.9012    1.5179   -0.0485 H   0  0  0  0  0  0  0  0  0  0  0  0
   -1.2502    2.1918   -0.7902 H   0  0  0  0  0  0  0  0  0  0  0  0
   -0.4248    1.5220   -2.1884 H   0  0  0  0  0  0  0  0  0  0  0  0
   -1.7098   -0.5701   -2.0120 H   0  0  0  0  0  0  0  0  0  0  0  0
   -2.8097    0.7990   -2.0313 H   0  0  0  0  0  0  0  0  0  0  0  0
    0.3732   -1.2348   -1.2907 H   0  0  0  0  0  0  0  0  0  0  0  0
    1.4482   -0.0012   -1.9122 H   0  0  0  0  0  0  0  0  0  0  0  0
    1.8353   -1.5195    0.7360 H   0  0  0  0  0  0  0  0  0  0  0  0
    2.7290   -1.7477   -0.7822 H   0  0  0  0  0  0  0  0  0  0  0  0
    2.7447    0.6868    0.8925 H   0  0  0  0  0  0  0  0  0  0  0  0
    3.4944    0.5497   -0.5838 H   0  0  0  0  0  0  0  0  0  0  0  0
    3.9695   -0.4042    0.6844 H   0  0  0  0  0  0  0  0  0  0  0  0
  1  2  1  0
  2  3  1  0
  3  4  1  0
  4  5  1  0
  5  6  1  0
  4  7  1  0
  7  8  1  0
  8  9  1  0
  6  1  1  0
  1 10  1  0
  1 11  1  0
  2 12  1  0
  2 13  1  0
  3 14  1  0
  3 15  1  0
  4 16  1  0
  5 17  1  0
  5 18  1  0
  6 19  1  0
  6 20  1  0
  7 21  1  0
  7 22  1  0
  8 23  1  0
  8 24  1  0
  9 25  1  0
  9 26  1  0
  9 27  1  0
M  CHG  1   9   1
M  END
