
     RDKit          3D

 22 21  0  0  0  0  0  0  0  0999 V2000
   -1.8362   -0.6046    0.9951 C   0  0  0  0  0  0  0  0  0  0  0  0
   -1.2077    0.4574    0.1951 N   0  0  0  0  0  0  0  0  0  0  0  0
   -2.2538    1.4033   -0.2276 C   0  0  0  0  0  0  0  0  0  0  0  0
   -0.5201   -0.0859   -0.9837 C   0  0  0  0  0  0  0  0  0  0  0  0
    0.8256   -0.7211   -0.6140 C   0  0  0  0  0  0  0  0  0  0  0  0
    1.7146    0.2597    0.1385 C   0  0  0  0  0  0  0  0  0  0  0  0
    3.0229   -0.3848    0.4242 N   0  0  0  0  0  4  0  0  0  0  0  0
   -1.0850   -1.2963    1.3890 H   0  0  0  0  0  0  0  0  0  0  0  0
   -2.5687   -1.1802    0.4176 H   0  0  0  0  0  0  0  0  0  0  0  0
   -2.3441   -0.1765    1.8670 H   0  0  0  0  0  0  0  0  0  0  0  0
   -1.8118    2.2420   -0.7769 H   0  0  0  0  0  0  0  0  0  0  0  0
   -3.0069    0.9278   -0.8666 H   0  0  0  0  0  0  0  0  0  0  0  0
   -2.7583    1.8342    0.6445 H   0  0  0  0  0  0  0  0  0  0  0  0
   -1.1464   -0.8113   -1.5183 H   0  0  0  0  0  0  0  0  0  0  0  0
   -0.3066    0.7253   -1.6926 H   0  0  0  0  0  0  0  0  0  0  0  0
    1.3252   -1.0401   -1.5374 H   0  0  0  0  0  0  0  0  0  0  0  0
    0.6726   -1.6277   -0.0170 H   0  0  0  0  0  0  0  0  0  0  0  0
    1.3008    0.5483    1.1087 H   0  0  0  0  0  0  0  0  0  0  0  0
    1.9284    1.1553   -0.4524 H   0  0  0  0  0  0  0  0  0  0  0  0
    3.6398    0.2605    0.9345 H   0  0  0  0  0  0  0  0  0  0  0  0
    3.5096   -0.6632   -0.4372 H   0  0  0  0  0  0  0  0  0  0  0  0
    2.9060   -1.2221    1.0094 H   0  0  0  0  0  0  0  0  0  0  0  0
  1  2  1  0
  2  3  1  0
  2  4  1  0
  4  5  1  0
  5  6  1  0
  6  7  1  0
  1  8  1  0
  1  9  1  0
  1 10  1  0
  3 11  1  0
  3 12  1  0
  3 13  1  0
  4 14  1  0
  4 15  1  0
  5 16  1  0
  5 17  1  0
  6 18  1  0
  6 19  1  0
  7 20  1  0
  7 21  1  0
  7 22  1  0
M  CHG  1   7   1
M  END
