
     RDKit          3D

 26 26  0  0  0  0  0  0  0  0999 V2000
    3.2279    0.9269   -1.1169 C   0  0  0  0  0  0  0  0  0  0  0  0
    2.1159   -0.0903   -0.9349 C   0  0  0  0  0  0  0  0  0  0  0  0
    1.0385    0.5571   -0.2577 O   0  0  0  0  0  0  0  0  0  0  0  0
   -0.0332   -0.2045    0.1207 C   0  0  0  0  0  0  0  0  0  0  0  0
   -0.2528   -1.5203   -0.2788 C   0  0  0  0  0  0  0  0  0  0  0  0
   -1.3786   -2.2328    0.1743 C   0  0  0  0  0  0  0  0  0  0  0  0
   -1.5186   -3.6299   -0.3066 C   0  0  0  0  0  0  0  0  0  0  0  0
   -0.7125   -4.1175   -1.0928 O   0  0  0  0  0  0  0  0  0  0  0  0
   -2.3042   -1.6245    1.0403 C   0  0  0  0  0  0  0  0  0  0  0  0
   -3.8343   -2.5894    1.6596 Br  0  0  0  0  0  0  0  0  0  0  0  0
   -2.0894   -0.2915    1.4407 C   0  0  0  0  0  0  0  0  0  0  0  0
   -3.2951    0.6200    2.6151 Br  0  0  0  0  0  0  0  0  0  0  0  0
   -0.9689    0.4150    0.9648 C   0  0  0  0  0  0  0  0  0  0  0  0
   -0.7479    1.6952    1.4203 O   0  0  0  0  0  0  0  0  0  0  0  0
   -0.8578    2.6848    0.3834 C   0  0  0  0  0  0  0  0  0  0  0  0
    0.2939    3.6007    0.4157 C   0  0  0  0  0  0  0  0  0  0  0  0
    1.1878    4.3431    0.4183 N   0  0  0  0  0  0  0  0  0  0  0  0
    3.5622    1.3100   -0.1470 H   0  0  0  0  0  0  0  0  0  0  0  0
    2.8726    1.7875   -1.6935 H   0  0  0  0  0  0  0  0  0  0  0  0
    4.0822    0.4825   -1.6352 H   0  0  0  0  0  0  0  0  0  0  0  0
    1.7854   -0.4396   -1.9195 H   0  0  0  0  0  0  0  0  0  0  0  0
    2.4915   -0.9318   -0.3414 H   0  0  0  0  0  0  0  0  0  0  0  0
    0.4436   -2.0226   -0.9465 H   0  0  0  0  0  0  0  0  0  0  0  0
   -2.3646   -4.2324    0.0532 H   0  0  0  0  0  0  0  0  0  0  0  0
   -1.7736    3.2530    0.5831 H   0  0  0  0  0  0  0  0  0  0  0  0
   -0.9700    2.2513   -0.6185 H   0  0  0  0  0  0  0  0  0  0  0  0
  1  2  1  0
  2  3  1  0
  3  4  1  0
  4  5  2  0
  5  6  1  0
  6  7  1  0
  7  8  2  0
  6  9  2  0
  9 10  1  0
  9 11  1  0
 11 12  1  0
 11 13  2  0
 13 14  1  0
 14 15  1  0
 15 16  1  0
 16 17  3  0
 13  4  1  0
  1 18  1  0
  1 19  1  0
  1 20  1  0
  2 21  1  0
  2 22  1  0
  5 23  1  0
  7 24  1  0
 15 25  1  0
 15 26  1  0
M  END
