
     RDKit          3D

 26 26  0  0  0  0  0  0  0  0999 V2000
   -1.8147    3.0338    0.6132 C   0  0  0  0  0  0  0  0  0  0  0  0
   -0.5205    2.2548    0.4621 C   0  0  0  0  0  0  0  0  0  0  0  0
   -0.8486    0.9529   -0.0262 O   0  0  0  0  0  0  0  0  0  0  0  0
    0.1798    0.1064   -0.3418 C   0  0  0  0  0  0  0  0  0  0  0  0
    1.5207    0.3599   -0.0567 C   0  0  0  0  0  0  0  0  0  0  0  0
    2.5280   -0.5437   -0.4420 C   0  0  0  0  0  0  0  0  0  0  0  0
    3.9221   -0.1739   -0.0920 C   0  0  0  0  0  0  0  0  0  0  0  0
    4.1722    0.8592    0.5212 O   0  0  0  0  0  0  0  0  0  0  0  0
    2.1974   -1.7247   -1.1262 C   0  0  0  0  0  0  0  0  0  0  0  0
    3.5631   -2.9513   -1.6608 Br  0  0  0  0  0  0  0  0  0  0  0  0
    0.8433   -1.9907   -1.4086 C   0  0  0  0  0  0  0  0  0  0  0  0
    0.3023   -3.5803   -2.3312 Br  0  0  0  0  0  0  0  0  0  0  0  0
   -0.1603   -1.0882   -0.9984 C   0  0  0  0  0  0  0  0  0  0  0  0
   -1.4616   -1.3814   -1.3410 O   0  0  0  0  0  0  0  0  0  0  0  0
   -2.3680   -1.4013   -0.2278 C   0  0  0  0  0  0  0  0  0  0  0  0
   -3.3666   -2.4675   -0.4143 C   0  0  0  0  0  0  0  0  0  0  0  0
   -4.1630   -3.3048   -0.5336 N   0  0  0  0  0  0  0  0  0  0  0  0
   -2.3342    3.1078   -0.3480 H   0  0  0  0  0  0  0  0  0  0  0  0
   -2.4938    2.5226    1.3036 H   0  0  0  0  0  0  0  0  0  0  0  0
   -1.6214    4.0423    0.9892 H   0  0  0  0  0  0  0  0  0  0  0  0
   -0.0333    2.1781    1.4406 H   0  0  0  0  0  0  0  0  0  0  0  0
    0.1320    2.7772   -0.2471 H   0  0  0  0  0  0  0  0  0  0  0  0
    1.8171    1.2662    0.4668 H   0  0  0  0  0  0  0  0  0  0  0  0
    4.7403   -0.8444   -0.3909 H   0  0  0  0  0  0  0  0  0  0  0  0
   -2.8880   -0.4385   -0.1817 H   0  0  0  0  0  0  0  0  0  0  0  0
   -1.8441   -1.5703    0.7218 H   0  0  0  0  0  0  0  0  0  0  0  0
  1  2  1  0
  2  3  1  0
  3  4  1  0
  4  5  2  0
  5  6  1  0
  6  7  1  0
  7  8  2  0
  6  9  2  0
  9 10  1  0
  9 11  1  0
 11 12  1  0
 11 13  2  0
 13 14  1  0
 14 15  1  0
 15 16  1  0
 16 17  3  0
 13  4  1  0
  1 18  1  0
  1 19  1  0
  1 20  1  0
  2 21  1  0
  2 22  1  0
  5 23  1  0
  7 24  1  0
 15 25  1  0
 15 26  1  0
M  END
