
     RDKit          3D

 20 20  0  0  0  0  0  0  0  0999 V2000
    3.0628    0.6666   -1.1049 C   0  0  0  0  0  0  0  0  0  0  0  0
    2.4619    0.6762    0.1589 O   0  0  0  0  0  0  0  0  0  0  0  0
    1.1456    0.3187    0.4163 C   0  0  0  0  0  0  0  0  0  0  0  0
    0.1506   -0.1099   -0.4394 C   0  0  0  0  0  0  0  0  0  0  0  0
   -1.0933   -0.4069    0.0748 C   0  0  0  0  0  0  0  0  0  0  0  0
   -2.1601   -0.8866   -0.9758 B   0  0  0  0  0  0  0  0  0  0  0  0
   -3.3782   -1.5117   -0.4275 O   0  0  0  0  0  0  0  0  0  0  0  0
   -2.2251   -0.2434   -2.2901 O   0  0  0  0  0  0  0  0  0  0  0  0
   -1.3840   -0.2918    1.4187 C   0  0  0  0  0  0  0  0  0  0  0  0
   -3.1484   -0.7331    2.0156 Br  0  0  0  0  0  0  0  0  0  0  0  0
   -0.3939    0.1360    2.2790 C   0  0  0  0  0  0  0  0  0  0  0  0
    0.8668    0.4400    1.7771 C   0  0  0  0  0  0  0  0  0  0  0  0
    2.1033    1.0144    3.1173 Br  0  0  0  0  0  0  0  0  0  0  0  0
    4.1666    0.5009   -1.0134 H   0  0  0  0  0  0  0  0  0  0  0  0
    2.5926   -0.0295   -1.8127 H   0  0  0  0  0  0  0  0  0  0  0  0
    2.9289    1.6870   -1.5296 H   0  0  0  0  0  0  0  0  0  0  0  0
    0.4834   -0.1628   -1.4545 H   0  0  0  0  0  0  0  0  0  0  0  0
   -4.0925   -1.5740   -1.1214 H   0  0  0  0  0  0  0  0  0  0  0  0
   -1.4118    0.3015   -2.4084 H   0  0  0  0  0  0  0  0  0  0  0  0
   -0.6753    0.2083    3.3200 H   0  0  0  0  0  0  0  0  0  0  0  0
  1  2  1  0
  2  3  1  0
  3  4  2  0
  4  5  1  0
  5  6  1  0
  6  7  1  0
  6  8  1  0
  5  9  2  0
  9 10  1  0
  9 11  1  0
 11 12  2  0
 12 13  1  0
 12  3  1  0
  1 14  1  0
  1 15  1  0
  1 16  1  0
  4 17  1  0
  7 18  1  0
  8 19  1  0
 11 20  1  0
M  END
