
     RDKit          3D

 16 16  0  0  0  0  0  0  0  0999 V2000
   -2.5898    0.4955   -1.0762 O   0  0  0  0  0  0  0  0  0  0  0  0
   -2.0157   -0.5236   -0.2717 C   0  0  0  0  0  0  0  0  0  0  0  0
   -0.5612   -0.2331   -0.0086 C   0  0  0  0  0  0  0  0  0  0  0  0
    0.4009   -0.8183   -0.8534 C   0  0  0  0  0  0  0  0  0  0  0  0
    1.7611   -0.5735   -0.6615 C   0  0  0  0  0  0  0  0  0  0  0  0
    3.0306   -1.3804   -1.8059 Br  0  0  0  0  0  0  0  0  0  0  0  0
    2.1896    0.2622    0.3647 C   0  0  0  0  0  0  0  0  0  0  0  0
    1.2482    0.8634    1.2005 C   0  0  0  0  0  0  0  0  0  0  0  0
   -0.1183    0.6228    1.0135 C   0  0  0  0  0  0  0  0  0  0  0  0
   -1.3234    1.5183    2.1765 Br  0  0  0  0  0  0  0  0  0  0  0  0
   -2.2206    1.3456   -0.7816 H   0  0  0  0  0  0  0  0  0  0  0  0
   -2.5867   -0.6164    0.6571 H   0  0  0  0  0  0  0  0  0  0  0  0
   -2.1337   -1.4772   -0.7981 H   0  0  0  0  0  0  0  0  0  0  0  0
    0.0803   -1.4661   -1.6679 H   0  0  0  0  0  0  0  0  0  0  0  0
    3.2478    0.4571    0.5185 H   0  0  0  0  0  0  0  0  0  0  0  0
    1.5910    1.5238    1.9941 H   0  0  0  0  0  0  0  0  0  0  0  0
  1  2  1  0
  2  3  1  0
  3  4  2  0
  4  5  1  0
  5  6  1  0
  5  7  2  0
  7  8  1  0
  8  9  2  0
  9 10  1  0
  9  3  1  0
  1 11  1  0
  2 12  1  0
  2 13  1  0
  4 14  1  0
  7 15  1  0
  8 16  1  0
M  END
