
     RDKit          3D

 15 15  0  0  0  0  0  0  0  0999 V2000
    2.5399    0.0653    0.6830 O   0  0  0  0  0  0  0  0  0  0  0  0
    1.7398   -0.6754   -0.2244 C   0  0  0  0  0  0  0  0  0  0  0  0
    0.3099   -0.2210   -0.1351 C   0  0  0  0  0  0  0  0  0  0  0  0
   -0.1226    0.8095   -0.9870 C   0  0  0  0  0  0  0  0  0  0  0  0
   -1.4362    1.2530   -0.9089 C   0  0  0  0  0  0  0  0  0  0  0  0
   -2.0073    2.6378   -2.0703 Br  0  0  0  0  0  0  0  0  0  0  0  0
   -2.3384    0.7485   -0.0431 N   0  0  0  0  0  0  0  0  0  0  0  0
   -1.9044   -0.2299    0.7841 C   0  0  0  0  0  0  0  0  0  0  0  0
   -0.6100   -0.7384    0.7828 C   0  0  0  0  0  0  0  0  0  0  0  0
   -0.1687   -2.0809    2.0415 Br  0  0  0  0  0  0  0  0  0  0  0  0
    2.1061    0.0310    1.5528 H   0  0  0  0  0  0  0  0  0  0  0  0
    1.8503   -1.7443   -0.0192 H   0  0  0  0  0  0  0  0  0  0  0  0
    2.1340   -0.5155   -1.2342 H   0  0  0  0  0  0  0  0  0  0  0  0
    0.5654    1.2602   -1.6972 H   0  0  0  0  0  0  0  0  0  0  0  0
   -2.6578   -0.6000    1.4752 H   0  0  0  0  0  0  0  0  0  0  0  0
  1  2  1  0
  2  3  1  0
  3  4  2  0
  4  5  1  0
  5  6  1  0
  5  7  2  0
  7  8  1  0
  8  9  2  0
  9 10  1  0
  9  3  1  0
  1 11  1  0
  2 12  1  0
  2 13  1  0
  4 14  1  0
  8 15  1  0
M  END
