
     RDKit          3D

 20 20  0  0  0  0  0  0  0  0999 V2000
   -3.7160   -0.5986   -0.0864 C   0  0  0  0  0  0  0  0  0  0  0  0
   -2.7106    0.2662    0.3826 O   0  0  0  0  0  0  0  0  0  0  0  0
   -1.3536    0.1009    0.1780 C   0  0  0  0  0  0  0  0  0  0  0  0
   -0.6467   -0.8744   -0.4875 C   0  0  0  0  0  0  0  0  0  0  0  0
    0.7247   -0.8098   -0.5486 C   0  0  0  0  0  0  0  0  0  0  0  0
    1.5598   -2.2485   -1.5148 Br  0  0  0  0  0  0  0  0  0  0  0  0
    1.4429    0.2022    0.0342 C   0  0  0  0  0  0  0  0  0  0  0  0
    2.9952    0.1560   -0.1100 B   0  0  0  0  0  0  0  0  0  0  0  0
    3.7312    1.3827   -0.4091 O   0  0  0  0  0  0  0  0  0  0  0  0
    3.7705   -0.9527    0.4398 O   0  0  0  0  0  0  0  0  0  0  0  0
    0.7554    1.1928    0.7079 C   0  0  0  0  0  0  0  0  0  0  0  0
   -0.6420    1.1434    0.7805 C   0  0  0  0  0  0  0  0  0  0  0  0
   -1.4244    2.6022    1.7554 Br  0  0  0  0  0  0  0  0  0  0  0  0
   -3.9738   -1.3232    0.7320 H   0  0  0  0  0  0  0  0  0  0  0  0
   -4.6352   -0.0492   -0.3827 H   0  0  0  0  0  0  0  0  0  0  0  0
   -3.3012   -1.2176   -0.8984 H   0  0  0  0  0  0  0  0  0  0  0  0
   -1.3025   -1.6238   -0.9098 H   0  0  0  0  0  0  0  0  0  0  0  0
    3.1099    2.1234   -0.6460 H   0  0  0  0  0  0  0  0  0  0  0  0
    4.2732   -1.4459   -0.2410 H   0  0  0  0  0  0  0  0  0  0  0  0
    1.3430    1.9738    1.1552 H   0  0  0  0  0  0  0  0  0  0  0  0
  1  2  1  0
  2  3  1  0
  3  4  2  0
  4  5  1  0
  5  6  1  0
  5  7  2  0
  7  8  1  0
  8  9  1  0
  8 10  1  0
  7 11  1  0
 11 12  2  0
 12 13  1  0
 12  3  1  0
  1 14  1  0
  1 15  1  0
  1 16  1  0
  4 17  1  0
  9 18  1  0
 10 19  1  0
 11 20  1  0
M  END
