
     RDKit          3D

 15 15  0  0  0  0  0  0  0  0999 V2000
   -2.1883   -1.3443    1.1479 O   0  0  0  0  0  0  0  0  0  0  0  0
   -1.6805   -0.0507    0.6693 B   0  0  0  0  0  0  0  0  0  0  0  0
   -2.6670    0.7977    0.0067 O   0  0  0  0  0  0  0  0  0  0  0  0
   -0.1699    0.0304    0.2476 C   0  0  0  0  0  0  0  0  0  0  0  0
    0.6129   -1.0777    0.0013 C   0  0  0  0  0  0  0  0  0  0  0  0
    1.9402   -0.9238   -0.3672 C   0  0  0  0  0  0  0  0  0  0  0  0
    2.9990   -2.4876   -0.7020 Br  0  0  0  0  0  0  0  0  0  0  0  0
    2.4786    0.3034   -0.4886 N   0  0  0  0  0  0  0  0  0  0  0  0
    1.7683    1.4472   -0.2617 C   0  0  0  0  0  0  0  0  0  0  0  0
    0.4587    1.2619    0.1011 C   0  0  0  0  0  0  0  0  0  0  0  0
   -0.5905    2.8388    0.4336 Br  0  0  0  0  0  0  0  0  0  0  0  0
   -2.7240   -1.8030    0.4342 H   0  0  0  0  0  0  0  0  0  0  0  0
   -2.6023    0.6263   -0.9669 H   0  0  0  0  0  0  0  0  0  0  0  0
    0.1727   -2.0560    0.1011 H   0  0  0  0  0  0  0  0  0  0  0  0
    2.1921    2.4374   -0.3566 H   0  0  0  0  0  0  0  0  0  0  0  0
  1  2  1  0
  2  3  1  0
  2  4  1  0
  4  5  2  0
  5  6  1  0
  6  7  1  0
  6  8  2  0
  8  9  1  0
  9 10  2  0
 10 11  1  0
 10  4  1  0
  1 12  1  0
  3 13  1  0
  5 14  1  0
  9 15  1  0
M  END
