
     RDKit          3D

 15 15  0  0  0  0  0  0  0  0999 V2000
   -2.4000   -0.8106   -0.8960 O   0  0  0  0  0  0  0  0  0  0  0  0
   -1.7952   -0.5981    0.3708 C   0  0  0  0  0  0  0  0  0  0  0  0
   -0.3729   -0.1475    0.1958 C   0  0  0  0  0  0  0  0  0  0  0  0
    0.5553   -0.9705   -0.4500 C   0  0  0  0  0  0  0  0  0  0  0  0
    1.8603   -0.5217   -0.5924 C   0  0  0  0  0  0  0  0  0  0  0  0
    3.1181   -1.6361   -1.4709 Br  0  0  0  0  0  0  0  0  0  0  0  0
    2.2927    0.6725   -0.1410 N   0  0  0  0  0  0  0  0  0  0  0  0
    1.3866    1.4523    0.4815 C   0  0  0  0  0  0  0  0  0  0  0  0
    1.9746    3.1365    1.1263 Br  0  0  0  0  0  0  0  0  0  0  0  0
    0.0590    1.0924    0.6720 C   0  0  0  0  0  0  0  0  0  0  0  0
   -2.0896   -0.1100   -1.4949 H   0  0  0  0  0  0  0  0  0  0  0  0
   -1.8316   -1.5308    0.9428 H   0  0  0  0  0  0  0  0  0  0  0  0
   -2.3877    0.1492    0.9085 H   0  0  0  0  0  0  0  0  0  0  0  0
    0.2555   -1.9417   -0.8344 H   0  0  0  0  0  0  0  0  0  0  0  0
   -0.6251    1.7639    1.1819 H   0  0  0  0  0  0  0  0  0  0  0  0
  1  2  1  0
  2  3  1  0
  3  4  2  0
  4  5  1  0
  5  6  1  0
  5  7  2  0
  7  8  1  0
  8  9  1  0
  8 10  2  0
 10  3  1  0
  1 11  1  0
  2 12  1  0
  2 13  1  0
  4 14  1  0
 10 15  1  0
M  END
