
     RDKit          3D

 20 20  0  0  0  0  0  0  0  0999 V2000
    3.1357   -0.6845   -1.4976 C   0  0  0  0  0  0  0  0  0  0  0  0
    1.9664   -1.1195   -0.8165 O   0  0  0  0  0  0  0  0  0  0  0  0
    0.9801   -0.2060   -0.4691 C   0  0  0  0  0  0  0  0  0  0  0  0
    1.0603    1.1561   -0.7521 C   0  0  0  0  0  0  0  0  0  0  0  0
    0.0317    1.9936   -0.3695 C   0  0  0  0  0  0  0  0  0  0  0  0
   -1.0886    1.5186    0.2934 C   0  0  0  0  0  0  0  0  0  0  0  0
   -2.4795    2.7187    0.7990 Br  0  0  0  0  0  0  0  0  0  0  0  0
   -1.1913    0.1644    0.5867 C   0  0  0  0  0  0  0  0  0  0  0  0
   -2.4315   -0.4124    1.3296 B   0  0  0  0  0  0  0  0  0  0  0  0
   -2.2301   -1.2764    2.4881 O   0  0  0  0  0  0  0  0  0  0  0  0
   -3.6824   -0.5523    0.5621 O   0  0  0  0  0  0  0  0  0  0  0  0
   -0.1454   -0.6432    0.1898 C   0  0  0  0  0  0  0  0  0  0  0  0
   -0.2899   -2.5119    0.5959 Br  0  0  0  0  0  0  0  0  0  0  0  0
    3.8403   -0.1878   -0.7839 H   0  0  0  0  0  0  0  0  0  0  0  0
    3.6479   -1.5325   -1.9943 H   0  0  0  0  0  0  0  0  0  0  0  0
    2.9113    0.0623   -2.2936 H   0  0  0  0  0  0  0  0  0  0  0  0
    1.9301    1.5284   -1.2675 H   0  0  0  0  0  0  0  0  0  0  0  0
    0.0638    3.0675   -0.5765 H   0  0  0  0  0  0  0  0  0  0  0  0
   -2.6250   -2.1754    2.2862 H   0  0  0  0  0  0  0  0  0  0  0  0
   -3.4041   -0.9079   -0.3416 H   0  0  0  0  0  0  0  0  0  0  0  0
  1  2  1  0
  2  3  1  0
  3  4  2  0
  4  5  1  0
  5  6  2  0
  6  7  1  0
  6  8  1  0
  8  9  1  0
  9 10  1  0
  9 11  1  0
  8 12  2  0
 12 13  1  0
 12  3  1  0
  1 14  1  0
  1 15  1  0
  1 16  1  0
  4 17  1  0
  5 18  1  0
 10 19  1  0
 11 20  1  0
M  END
