
     RDKit          3D

 16 16  0  0  0  0  0  0  0  0999 V2000
   -2.5062    0.3860    1.2001 O   0  0  0  0  0  0  0  0  0  0  0  0
   -2.0387    0.3826   -0.1408 C   0  0  0  0  0  0  0  0  0  0  0  0
   -0.5493    0.1443   -0.1773 C   0  0  0  0  0  0  0  0  0  0  0  0
    0.3682    1.2164   -0.2174 C   0  0  0  0  0  0  0  0  0  0  0  0
   -0.1745    3.0407   -0.2191 Br  0  0  0  0  0  0  0  0  0  0  0  0
    1.7477    0.9872   -0.2467 C   0  0  0  0  0  0  0  0  0  0  0  0
    2.2269   -0.3122   -0.2234 C   0  0  0  0  0  0  0  0  0  0  0  0
    3.5479   -0.5291   -0.2499 F   0  0  0  0  0  0  0  0  0  0  0  0
    1.3598   -1.3904   -0.1622 C   0  0  0  0  0  0  0  0  0  0  0  0
   -0.0193   -1.1640   -0.1325 C   0  0  0  0  0  0  0  0  0  0  0  0
   -1.1230   -2.7093    0.0019 Br  0  0  0  0  0  0  0  0  0  0  0  0
   -2.1603   -0.4126    1.6336 H   0  0  0  0  0  0  0  0  0  0  0  0
   -2.5841   -0.3804   -0.7052 H   0  0  0  0  0  0  0  0  0  0  0  0
   -2.3253    1.3274   -0.6095 H   0  0  0  0  0  0  0  0  0  0  0  0
    2.4581    1.8082   -0.2817 H   0  0  0  0  0  0  0  0  0  0  0  0
    1.7722   -2.3947   -0.1318 H   0  0  0  0  0  0  0  0  0  0  0  0
  1  2  1  0
  2  3  1  0
  3  4  2  0
  4  5  1  0
  4  6  1  0
  6  7  2  0
  7  8  1  0
  7  9  1  0
  9 10  2  0
 10 11  1  0
 10  3  1  0
  1 12  1  0
  2 13  1  0
  2 14  1  0
  6 15  1  0
  9 16  1  0
M  END
