
     RDKit          3D

 17 17  0  0  0  0  0  0  0  0999 V2000
    2.5264   -0.0527   -0.7295 N   0  0  0  0  0  0  0  0  0  0  0  0
    1.7007    0.6908    0.2154 C   0  0  0  0  0  0  0  0  0  0  0  0
    0.2683    0.2124    0.1961 C   0  0  0  0  0  0  0  0  0  0  0  0
   -0.6626    0.7274   -0.7318 C   0  0  0  0  0  0  0  0  0  0  0  0
   -0.1977    2.0422   -2.0305 Br  0  0  0  0  0  0  0  0  0  0  0  0
   -1.9912    0.2821   -0.7553 C   0  0  0  0  0  0  0  0  0  0  0  0
   -2.4196   -0.6941    0.1368 C   0  0  0  0  0  0  0  0  0  0  0  0
   -1.5182   -1.2325    1.0486 C   0  0  0  0  0  0  0  0  0  0  0  0
   -0.1879   -0.7908    1.0770 C   0  0  0  0  0  0  0  0  0  0  0  0
    0.9409   -1.6326    2.3600 Br  0  0  0  0  0  0  0  0  0  0  0  0
    2.1839    0.1188   -1.6743 H   0  0  0  0  0  0  0  0  0  0  0  0
    3.4753    0.3157   -0.7024 H   0  0  0  0  0  0  0  0  0  0  0  0
    1.7558    1.7626   -0.0041 H   0  0  0  0  0  0  0  0  0  0  0  0
    2.1328    0.6086    1.2172 H   0  0  0  0  0  0  0  0  0  0  0  0
   -2.6994    0.6890   -1.4738 H   0  0  0  0  0  0  0  0  0  0  0  0
   -3.4493   -1.0415    0.1158 H   0  0  0  0  0  0  0  0  0  0  0  0
   -1.8585   -2.0051    1.7348 H   0  0  0  0  0  0  0  0  0  0  0  0
  1  2  1  0
  2  3  1  0
  3  4  2  0
  4  5  1  0
  4  6  1  0
  6  7  2  0
  7  8  1  0
  8  9  2  0
  9 10  1  0
  9  3  1  0
  1 11  1  0
  1 12  1  0
  2 13  1  0
  2 14  1  0
  6 15  1  0
  7 16  1  0
  8 17  1  0
M  END
