
     RDKit          3D

 18 18  0  0  0  0  0  0  0  0999 V2000
    0.2224   -1.7356   -1.1900 N   0  0  0  0  0  0  0  0  0  0  0  0
    0.4623   -0.5582   -0.4496 C   0  0  0  0  0  0  0  0  0  0  0  0
    1.6025    0.2327   -0.7066 C   0  0  0  0  0  0  0  0  0  0  0  0
    2.9558   -0.3674   -1.9027 Br  0  0  0  0  0  0  0  0  0  0  0  0
    1.7920    1.4642   -0.0778 C   0  0  0  0  0  0  0  0  0  0  0  0
    0.8182    1.9388    0.7914 C   0  0  0  0  0  0  0  0  0  0  0  0
    1.0600    3.6049    1.6514 Br  0  0  0  0  0  0  0  0  0  0  0  0
   -0.3425    1.2031    1.0245 C   0  0  0  0  0  0  0  0  0  0  0  0
   -0.5451   -0.0374    0.3911 C   0  0  0  0  0  0  0  0  0  0  0  0
   -1.8333   -0.7815    0.6584 C   0  0  0  0  0  0  0  0  0  0  0  0
   -2.5084   -1.1416   -0.5406 O   0  0  0  0  0  0  0  0  0  0  0  0
   -0.3256   -2.4382   -0.6977 H   0  0  0  0  0  0  0  0  0  0  0  0
    1.0794   -2.1324   -1.5746 H   0  0  0  0  0  0  0  0  0  0  0  0
    2.6866    2.0492   -0.2718 H   0  0  0  0  0  0  0  0  0  0  0  0
   -1.1049    1.6019    1.6915 H   0  0  0  0  0  0  0  0  0  0  0  0
   -1.6170   -1.6936    1.2248 H   0  0  0  0  0  0  0  0  0  0  0  0
   -2.5270   -0.1801    1.2547 H   0  0  0  0  0  0  0  0  0  0  0  0
   -1.8754   -1.0289   -1.2763 H   0  0  0  0  0  0  0  0  0  0  0  0
  1  2  1  0
  2  3  2  0
  3  4  1  0
  3  5  1  0
  5  6  2  0
  6  7  1  0
  6  8  1  0
  8  9  2  0
  9 10  1  0
 10 11  1  0
  9  2  1  0
  1 12  1  0
  1 13  1  0
  5 14  1  0
  8 15  1  0
 10 16  1  0
 10 17  1  0
 11 18  1  0
M  END
