
     RDKit          3D

 18 18  0  0  0  0  0  0  0  0999 V2000
    0.7017   -1.8952    0.6275 N   0  0  0  0  0  0  0  0  0  0  0  0
   -0.1131   -0.8135    0.2298 C   0  0  0  0  0  0  0  0  0  0  0  0
   -1.4760   -0.7687    0.5932 C   0  0  0  0  0  0  0  0  0  0  0  0
   -2.3079   -2.2550    1.4425 Br  0  0  0  0  0  0  0  0  0  0  0  0
   -2.2661    0.3494    0.3220 C   0  0  0  0  0  0  0  0  0  0  0  0
   -1.6884    1.4569   -0.2851 C   0  0  0  0  0  0  0  0  0  0  0  0
   -2.7451    2.9791   -0.6595 Br  0  0  0  0  0  0  0  0  0  0  0  0
   -0.3326    1.4607   -0.6083 C   0  0  0  0  0  0  0  0  0  0  0  0
    0.4736    0.3400   -0.3340 C   0  0  0  0  0  0  0  0  0  0  0  0
    1.9433    0.4071   -0.6805 C   0  0  0  0  0  0  0  0  0  0  0  0
    2.7750    0.0777    0.4253 O   0  0  0  0  0  0  0  0  0  0  0  0
    0.1617   -2.7420    0.8043 H   0  0  0  0  0  0  0  0  0  0  0  0
    1.4899   -2.0779    0.0097 H   0  0  0  0  0  0  0  0  0  0  0  0
   -3.3190    0.3573    0.5899 H   0  0  0  0  0  0  0  0  0  0  0  0
    0.1075    2.3466   -1.0630 H   0  0  0  0  0  0  0  0  0  0  0  0
    2.1574   -0.2895   -1.4982 H   0  0  0  0  0  0  0  0  0  0  0  0
    2.2303    1.4085   -1.0171 H   0  0  0  0  0  0  0  0  0  0  0  0
    2.2078   -0.3415    1.1016 H   0  0  0  0  0  0  0  0  0  0  0  0
  1  2  1  0
  2  3  2  0
  3  4  1  0
  3  5  1  0
  5  6  2  0
  6  7  1  0
  6  8  1  0
  8  9  2  0
  9 10  1  0
 10 11  1  0
  9  2  1  0
  1 12  1  0
  1 13  1  0
  5 14  1  0
  8 15  1  0
 10 16  1  0
 10 17  1  0
 11 18  1  0
M  END
