
     RDKit          3D

 26 26  0  0  0  0  0  0  0  0999 V2000
    5.0490   -0.1265    0.3072 C   0  0  0  0  0  0  0  0  0  0  0  0
    3.6087    0.2470    0.0098 C   0  0  0  0  0  0  0  0  0  0  0  0
    2.7801   -0.8615    0.3861 O   0  0  0  0  0  0  0  0  0  0  0  0
    1.4581   -0.5875    0.1432 C   0  0  0  0  0  0  0  0  0  0  0  0
    0.8746   -0.9408   -1.0788 C   0  0  0  0  0  0  0  0  0  0  0  0
    1.8672   -1.7974   -2.4533 Br  0  0  0  0  0  0  0  0  0  0  0  0
   -0.4810   -0.6856   -1.3152 C   0  0  0  0  0  0  0  0  0  0  0  0
   -1.2819   -0.1067   -0.3227 C   0  0  0  0  0  0  0  0  0  0  0  0
   -2.6935    0.1663   -0.6253 C   0  0  0  0  0  0  0  0  0  0  0  0
   -3.6879    0.0666    0.2696 C   0  0  0  0  0  0  0  0  0  0  0  0
   -5.0679    0.3495   -0.1455 C   0  0  0  0  0  0  0  0  0  0  0  0
   -5.4565    0.6768   -1.2496 O   0  0  0  0  0  0  0  0  0  0  0  0
   -5.9014    0.1989    0.8952 O   0  0  0  0  0  0  0  0  0  0  0  0
   -0.7004    0.2252    0.9075 C   0  0  0  0  0  0  0  0  0  0  0  0
    0.6556   -0.0289    1.1448 C   0  0  0  0  0  0  0  0  0  0  0  0
    1.3461    0.3896    2.8646 Br  0  0  0  0  0  0  0  0  0  0  0  0
    5.3367   -1.0248   -0.2490 H   0  0  0  0  0  0  0  0  0  0  0  0
    5.1760   -0.3549    1.3706 H   0  0  0  0  0  0  0  0  0  0  0  0
    5.7269    0.6881    0.0376 H   0  0  0  0  0  0  0  0  0  0  0  0
    3.3414    1.1436    0.5806 H   0  0  0  0  0  0  0  0  0  0  0  0
    3.5041    0.4656   -1.0590 H   0  0  0  0  0  0  0  0  0  0  0  0
   -0.9192   -0.9577   -2.2740 H   0  0  0  0  0  0  0  0  0  0  0  0
   -2.9151    0.4429   -1.6559 H   0  0  0  0  0  0  0  0  0  0  0  0
   -3.5365   -0.2296    1.2998 H   0  0  0  0  0  0  0  0  0  0  0  0
   -6.7838    0.4052    0.5221 H   0  0  0  0  0  0  0  0  0  0  0  0
   -1.2995    0.6863    1.6895 H   0  0  0  0  0  0  0  0  0  0  0  0
  1  2  1  0
  2  3  1  0
  3  4  1  0
  4  5  2  0
  5  6  1  0
  5  7  1  0
  7  8  2  0
  8  9  1  0
  9 10  2  0
 10 11  1  0
 11 12  2  0
 11 13  1  0
  8 14  1  0
 14 15  2  0
 15 16  1  0
 15  4  1  0
  1 17  1  0
  1 18  1  0
  1 19  1  0
  2 20  1  0
  2 21  1  0
  7 22  1  0
  9 23  1  0
 10 24  1  0
 13 25  1  0
 14 26  1  0
M  END
