
     RDKit          3D

 33 33  0  0  0  0  0  0  0  0999 V2000
   -0.4294   -2.1253    2.2170 C   0  0  0  0  0  0  0  0  0  0  0  0
   -1.0906   -1.3592    1.2186 O   0  0  0  0  0  0  0  0  0  0  0  0
   -0.3231   -0.5669    0.4051 C   0  0  0  0  0  0  0  0  0  0  0  0
    1.0361   -0.3196    0.6075 C   0  0  0  0  0  0  0  0  0  0  0  0
    1.7738    0.4672   -0.2946 C   0  0  0  0  0  0  0  0  0  0  0  0
    3.1987    0.6933   -0.0011 C   0  0  0  0  0  0  0  0  0  0  0  0
    4.0922   -0.3076    0.0187 C   0  0  0  0  0  0  0  0  0  0  0  0
    5.5219   -0.1147    0.2949 C   0  0  0  0  0  0  0  0  0  0  0  0
    6.3425   -1.0141    0.3176 O   0  0  0  0  0  0  0  0  0  0  0  0
    5.8634    1.1596    0.5347 O   0  0  0  0  0  0  0  0  0  0  0  0
    1.1333    1.0149   -1.4249 C   0  0  0  0  0  0  0  0  0  0  0  0
    2.1596    2.0575   -2.6627 Br  0  0  0  0  0  0  0  0  0  0  0  0
   -0.2376    0.7780   -1.6339 C   0  0  0  0  0  0  0  0  0  0  0  0
   -1.1448    1.4527   -3.1786 Br  0  0  0  0  0  0  0  0  0  0  0  0
   -0.9681    0.0202   -0.6987 C   0  0  0  0  0  0  0  0  0  0  0  0
   -2.3023   -0.2179   -0.9454 O   0  0  0  0  0  0  0  0  0  0  0  0
   -3.1846    0.3379    0.0457 C   0  0  0  0  0  0  0  0  0  0  0  0
   -3.8353    1.5958   -0.5230 C   0  0  0  0  0  0  0  0  0  0  0  0
   -4.2478   -0.7122    0.3522 C   0  0  0  0  0  0  0  0  0  0  0  0
   -1.1764   -2.7666    2.6947 H   0  0  0  0  0  0  0  0  0  0  0  0
    0.3362   -2.7745    1.7794 H   0  0  0  0  0  0  0  0  0  0  0  0
   -0.0053   -1.4766    2.9902 H   0  0  0  0  0  0  0  0  0  0  0  0
    1.5495   -0.7287    1.4733 H   0  0  0  0  0  0  0  0  0  0  0  0
    3.4933    1.7250    0.1784 H   0  0  0  0  0  0  0  0  0  0  0  0
    3.8104   -1.3358   -0.1814 H   0  0  0  0  0  0  0  0  0  0  0  0
    6.8302    1.1194    0.6876 H   0  0  0  0  0  0  0  0  0  0  0  0
   -2.6674    0.6053    0.9755 H   0  0  0  0  0  0  0  0  0  0  0  0
   -3.0814    2.3680   -0.7069 H   0  0  0  0  0  0  0  0  0  0  0  0
   -4.5793    2.0046    0.1677 H   0  0  0  0  0  0  0  0  0  0  0  0
   -4.3215    1.3895   -1.4828 H   0  0  0  0  0  0  0  0  0  0  0  0
   -4.9663   -0.3461    1.0919 H   0  0  0  0  0  0  0  0  0  0  0  0
   -3.7871   -1.6270    0.7392 H   0  0  0  0  0  0  0  0  0  0  0  0
   -4.7925   -0.9960   -0.5553 H   0  0  0  0  0  0  0  0  0  0  0  0
  1  2  1  0
  2  3  1  0
  3  4  2  0
  4  5  1  0
  5  6  1  0
  6  7  2  0
  7  8  1  0
  8  9  2  0
  8 10  1  0
  5 11  2  0
 11 12  1  0
 11 13  1  0
 13 14  1  0
 13 15  2  0
 15 16  1  0
 16 17  1  0
 17 18  1  0
 17 19  1  0
 15  3  1  0
  1 20  1  0
  1 21  1  0
  1 22  1  0
  4 23  1  0
  6 24  1  0
  7 25  1  0
 10 26  1  0
 17 27  1  0
 18 28  1  0
 18 29  1  0
 18 30  1  0
 19 31  1  0
 19 32  1  0
 19 33  1  0
M  END
