
     RDKit          3D

 26 26  0  0  0  0  0  0  0  0999 V2000
   -2.2893   -2.5745   -0.5842 C   0  0  0  0  0  0  0  0  0  0  0  0
   -1.6777   -1.1923   -0.7188 C   0  0  0  0  0  0  0  0  0  0  0  0
   -1.4259   -0.6922    0.6016 O   0  0  0  0  0  0  0  0  0  0  0  0
   -0.9780    0.6073    0.5511 C   0  0  0  0  0  0  0  0  0  0  0  0
   -1.8909    1.6638    0.6932 C   0  0  0  0  0  0  0  0  0  0  0  0
   -3.7487    1.3536    0.9350 Br  0  0  0  0  0  0  0  0  0  0  0  0
   -1.4460    2.9855    0.6725 C   0  0  0  0  0  0  0  0  0  0  0  0
   -0.0855    3.2459    0.5366 C   0  0  0  0  0  0  0  0  0  0  0  0
    0.5257    5.0358    0.5245 Br  0  0  0  0  0  0  0  0  0  0  0  0
    0.8360    2.2026    0.4277 C   0  0  0  0  0  0  0  0  0  0  0  0
    0.4021    0.8677    0.4312 C   0  0  0  0  0  0  0  0  0  0  0  0
    1.3763   -0.2379    0.3883 C   0  0  0  0  0  0  0  0  0  0  0  0
    2.4671   -0.2477   -0.3937 C   0  0  0  0  0  0  0  0  0  0  0  0
    3.4225   -1.3629   -0.4433 C   0  0  0  0  0  0  0  0  0  0  0  0
    4.4137   -1.3828   -1.1507 O   0  0  0  0  0  0  0  0  0  0  0  0
    3.1141   -2.3845    0.3680 O   0  0  0  0  0  0  0  0  0  0  0  0
   -1.6134   -3.2436   -0.0414 H   0  0  0  0  0  0  0  0  0  0  0  0
   -2.4991   -3.0056   -1.5670 H   0  0  0  0  0  0  0  0  0  0  0  0
   -3.2216   -2.5290   -0.0116 H   0  0  0  0  0  0  0  0  0  0  0  0
   -2.3723   -0.5388   -1.2598 H   0  0  0  0  0  0  0  0  0  0  0  0
   -0.7426   -1.2641   -1.2858 H   0  0  0  0  0  0  0  0  0  0  0  0
   -2.1527    3.8048    0.7753 H   0  0  0  0  0  0  0  0  0  0  0  0
    1.8966    2.4353    0.3630 H   0  0  0  0  0  0  0  0  0  0  0  0
    1.1414   -1.0891    1.0258 H   0  0  0  0  0  0  0  0  0  0  0  0
    2.7115    0.5722   -1.0594 H   0  0  0  0  0  0  0  0  0  0  0  0
    3.8366   -3.0294    0.2216 H   0  0  0  0  0  0  0  0  0  0  0  0
  1  2  1  0
  2  3  1  0
  3  4  1  0
  4  5  2  0
  5  6  1  0
  5  7  1  0
  7  8  2  0
  8  9  1  0
  8 10  1  0
 10 11  2  0
 11 12  1  0
 12 13  2  0
 13 14  1  0
 14 15  2  0
 14 16  1  0
 11  4  1  0
  1 17  1  0
  1 18  1  0
  1 19  1  0
  2 20  1  0
  2 21  1  0
  7 22  1  0
 10 23  1  0
 12 24  1  0
 13 25  1  0
 16 26  1  0
M  END
