
     RDKit          3D

 26 26  0  0  0  0  0  0  0  0999 V2000
   -3.1911   -1.4042   -0.6775 C   0  0  0  0  0  0  0  0  0  0  0  0
   -1.9947   -0.4887   -0.8585 C   0  0  0  0  0  0  0  0  0  0  0  0
   -1.7199    0.1314    0.4051 O   0  0  0  0  0  0  0  0  0  0  0  0
   -0.7184    1.0659    0.2811 C   0  0  0  0  0  0  0  0  0  0  0  0
   -1.0484    2.4151    0.0797 C   0  0  0  0  0  0  0  0  0  0  0  0
   -2.8522    2.9941   -0.0517 Br  0  0  0  0  0  0  0  0  0  0  0  0
   -0.0443    3.3781   -0.0175 C   0  0  0  0  0  0  0  0  0  0  0  0
    1.2864    2.9922    0.1139 C   0  0  0  0  0  0  0  0  0  0  0  0
    2.6522    4.2957   -0.0005 Br  0  0  0  0  0  0  0  0  0  0  0  0
    1.6255    1.6579    0.3472 C   0  0  0  0  0  0  0  0  0  0  0  0
    0.6275    0.6745    0.4317 C   0  0  0  0  0  0  0  0  0  0  0  0
    0.9747   -0.7231    0.7466 C   0  0  0  0  0  0  0  0  0  0  0  0
    2.0477   -1.3623    0.2570 C   0  0  0  0  0  0  0  0  0  0  0  0
    2.2871   -2.7648    0.6198 C   0  0  0  0  0  0  0  0  0  0  0  0
    1.6043   -3.4756    1.3304 O   0  0  0  0  0  0  0  0  0  0  0  0
    3.4163   -3.2019    0.0405 O   0  0  0  0  0  0  0  0  0  0  0  0
   -2.9846   -2.1614    0.0861 H   0  0  0  0  0  0  0  0  0  0  0  0
   -3.4425   -1.9075   -1.6152 H   0  0  0  0  0  0  0  0  0  0  0  0
   -4.0628   -0.8360   -0.3363 H   0  0  0  0  0  0  0  0  0  0  0  0
   -1.1335   -1.0798   -1.1901 H   0  0  0  0  0  0  0  0  0  0  0  0
   -2.2250    0.2634   -1.6224 H   0  0  0  0  0  0  0  0  0  0  0  0
   -0.2982    4.4222   -0.1804 H   0  0  0  0  0  0  0  0  0  0  0  0
    2.6714    1.3929    0.4856 H   0  0  0  0  0  0  0  0  0  0  0  0
    0.2756   -1.2446    1.4008 H   0  0  0  0  0  0  0  0  0  0  0  0
    2.7588   -0.9019   -0.4169 H   0  0  0  0  0  0  0  0  0  0  0  0
    3.4878   -4.1318    0.3416 H   0  0  0  0  0  0  0  0  0  0  0  0
  1  2  1  0
  2  3  1  0
  3  4  1  0
  4  5  2  0
  5  6  1  0
  5  7  1  0
  7  8  2  0
  8  9  1  0
  8 10  1  0
 10 11  2  0
 11 12  1  0
 12 13  2  0
 13 14  1  0
 14 15  2  0
 14 16  1  0
 11  4  1  0
  1 17  1  0
  1 18  1  0
  1 19  1  0
  2 20  1  0
  2 21  1  0
  7 22  1  0
 10 23  1  0
 12 24  1  0
 13 25  1  0
 16 26  1  0
M  END
