
     RDKit          3D

 29 29  0  0  0  0  0  0  0  0999 V2000
    5.4068    0.5743   -0.1386 C   0  0  0  0  0  0  0  0  0  0  0  0
    4.3530   -0.2804   -0.8192 C   0  0  0  0  0  0  0  0  0  0  0  0
    2.9518    0.0263   -0.3017 C   0  0  0  0  0  0  0  0  0  0  0  0
    2.0323   -0.8261   -1.0008 O   0  0  0  0  0  0  0  0  0  0  0  0
    0.7448   -0.6017   -0.5840 C   0  0  0  0  0  0  0  0  0  0  0  0
   -0.0642    0.3238   -1.2532 C   0  0  0  0  0  0  0  0  0  0  0  0
    0.5716    1.3175   -2.7425 Br  0  0  0  0  0  0  0  0  0  0  0  0
   -1.3872    0.5334   -0.8465 C   0  0  0  0  0  0  0  0  0  0  0  0
   -1.9311   -0.2034    0.2131 C   0  0  0  0  0  0  0  0  0  0  0  0
   -3.3051    0.0020    0.6912 C   0  0  0  0  0  0  0  0  0  0  0  0
   -4.3452    0.2859   -0.1072 C   0  0  0  0  0  0  0  0  0  0  0  0
   -5.6817    0.4575    0.4766 C   0  0  0  0  0  0  0  0  0  0  0  0
   -5.9948    0.3703    1.6477 O   0  0  0  0  0  0  0  0  0  0  0  0
   -6.5717    0.7408   -0.4868 O   0  0  0  0  0  0  0  0  0  0  0  0
   -1.1252   -1.1443    0.8667 C   0  0  0  0  0  0  0  0  0  0  0  0
    0.1972   -1.3552    0.4604 C   0  0  0  0  0  0  0  0  0  0  0  0
    1.1940   -2.7033    1.3535 Br  0  0  0  0  0  0  0  0  0  0  0  0
    5.4147    0.4004    0.9421 H   0  0  0  0  0  0  0  0  0  0  0  0
    6.4006    0.3335   -0.5286 H   0  0  0  0  0  0  0  0  0  0  0  0
    5.2217    1.6388   -0.3142 H   0  0  0  0  0  0  0  0  0  0  0  0
    4.3872   -0.1201   -1.9035 H   0  0  0  0  0  0  0  0  0  0  0  0
    4.5776   -1.3424   -0.6635 H   0  0  0  0  0  0  0  0  0  0  0  0
    2.9064   -0.1620    0.7776 H   0  0  0  0  0  0  0  0  0  0  0  0
    2.7127    1.0809   -0.4834 H   0  0  0  0  0  0  0  0  0  0  0  0
   -1.9900    1.2780   -1.3617 H   0  0  0  0  0  0  0  0  0  0  0  0
   -3.4586   -0.1127    1.7640 H   0  0  0  0  0  0  0  0  0  0  0  0
   -4.2629    0.3854   -1.1820 H   0  0  0  0  0  0  0  0  0  0  0  0
   -7.4195    0.8342   -0.0042 H   0  0  0  0  0  0  0  0  0  0  0  0
   -1.5351   -1.7317    1.6867 H   0  0  0  0  0  0  0  0  0  0  0  0
  1  2  1  0
  2  3  1  0
  3  4  1  0
  4  5  1  0
  5  6  2  0
  6  7  1  0
  6  8  1  0
  8  9  2  0
  9 10  1  0
 10 11  2  0
 11 12  1  0
 12 13  2  0
 12 14  1  0
  9 15  1  0
 15 16  2  0
 16 17  1  0
 16  5  1  0
  1 18  1  0
  1 19  1  0
  1 20  1  0
  2 21  1  0
  2 22  1  0
  3 23  1  0
  3 24  1  0
  8 25  1  0
 10 26  1  0
 11 27  1  0
 14 28  1  0
 15 29  1  0
M  END
