
     RDKit          3D

 29 29  0  0  0  0  0  0  0  0999 V2000
    6.3849   -0.0024    0.3631 C   0  0  0  0  0  0  0  0  0  0  0  0
    4.9890   -0.0544    0.6623 O   0  0  0  0  0  0  0  0  0  0  0  0
    4.1827    0.1750   -0.4187 C   0  0  0  0  0  0  0  0  0  0  0  0
    4.5866    0.4063   -1.5499 O   0  0  0  0  0  0  0  0  0  0  0  0
    2.7274    0.0948    0.0178 C   0  0  0  0  0  0  0  0  0  0  0  0
    1.8553    0.3299   -1.0913 O   0  0  0  0  0  0  0  0  0  0  0  0
    0.5405    0.2586   -0.7075 C   0  0  0  0  0  0  0  0  0  0  0  0
   -0.1584   -0.9510   -0.7967 C   0  0  0  0  0  0  0  0  0  0  0  0
    0.6706   -2.5422   -1.4209 Br  0  0  0  0  0  0  0  0  0  0  0  0
   -1.5089   -1.0180   -0.4349 C   0  0  0  0  0  0  0  0  0  0  0  0
   -2.1896    0.1304   -0.0112 C   0  0  0  0  0  0  0  0  0  0  0  0
   -3.5991    0.1013    0.4035 C   0  0  0  0  0  0  0  0  0  0  0  0
   -4.5391   -0.6527   -0.1878 C   0  0  0  0  0  0  0  0  0  0  0  0
   -5.9492   -0.6664    0.2261 C   0  0  0  0  0  0  0  0  0  0  0  0
   -6.8107   -1.3485   -0.2987 O   0  0  0  0  0  0  0  0  0  0  0  0
   -6.2246    0.1492    1.2545 O   0  0  0  0  0  0  0  0  0  0  0  0
   -1.4930    1.3435    0.0572 C   0  0  0  0  0  0  0  0  0  0  0  0
   -0.1430    1.4116   -0.3047 C   0  0  0  0  0  0  0  0  0  0  0  0
    0.7045    3.1104   -0.2488 Br  0  0  0  0  0  0  0  0  0  0  0  0
    6.6494   -0.7734   -0.3674 H   0  0  0  0  0  0  0  0  0  0  0  0
    6.9365   -0.1976    1.2869 H   0  0  0  0  0  0  0  0  0  0  0  0
    6.6621    0.9914   -0.0021 H   0  0  0  0  0  0  0  0  0  0  0  0
    2.5718    0.8529    0.7937 H   0  0  0  0  0  0  0  0  0  0  0  0
    2.5596   -0.9065    0.4303 H   0  0  0  0  0  0  0  0  0  0  0  0
   -2.0264   -1.9736   -0.4849 H   0  0  0  0  0  0  0  0  0  0  0  0
   -3.8623    0.7610    1.2286 H   0  0  0  0  0  0  0  0  0  0  0  0
   -4.3213   -1.3005   -1.0294 H   0  0  0  0  0  0  0  0  0  0  0  0
   -7.1854    0.0236    1.4002 H   0  0  0  0  0  0  0  0  0  0  0  0
   -2.0100    2.2472    0.3759 H   0  0  0  0  0  0  0  0  0  0  0  0
  1  2  1  0
  2  3  1  0
  3  4  2  0
  3  5  1  0
  5  6  1  0
  6  7  1  0
  7  8  2  0
  8  9  1  0
  8 10  1  0
 10 11  2  0
 11 12  1  0
 12 13  2  0
 13 14  1  0
 14 15  2  0
 14 16  1  0
 11 17  1  0
 17 18  2  0
 18 19  1  0
 18  7  1  0
  1 20  1  0
  1 21  1  0
  1 22  1  0
  5 23  1  0
  5 24  1  0
 10 25  1  0
 12 26  1  0
 13 27  1  0
 16 28  1  0
 17 29  1  0
M  END
