
     RDKit          3D

 29 29  0  0  0  0  0  0  0  0999 V2000
   -3.6257    0.7721   -0.5479 C   0  0  0  0  0  0  0  0  0  0  0  0
   -3.1560   -0.6111   -0.1044 C   0  0  0  0  0  0  0  0  0  0  0  0
   -4.3584   -1.4550    0.3115 C   0  0  0  0  0  0  0  0  0  0  0  0
   -2.2971   -0.5061    1.0475 O   0  0  0  0  0  0  0  0  0  0  0  0
   -0.9656   -0.4071    0.7310 C   0  0  0  0  0  0  0  0  0  0  0  0
   -0.2142   -1.5117    0.3082 C   0  0  0  0  0  0  0  0  0  0  0  0
   -0.9429   -3.2638    0.1937 Br  0  0  0  0  0  0  0  0  0  0  0  0
    1.1471   -1.3705    0.0064 C   0  0  0  0  0  0  0  0  0  0  0  0
    1.7878   -0.1339    0.1442 C   0  0  0  0  0  0  0  0  0  0  0  0
    3.2223   -0.0417   -0.1603 C   0  0  0  0  0  0  0  0  0  0  0  0
    3.8149    1.0492   -0.6688 C   0  0  0  0  0  0  0  0  0  0  0  0
    5.2562    1.0274   -0.9493 C   0  0  0  0  0  0  0  0  0  0  0  0
    6.0291    0.1042   -0.7837 O   0  0  0  0  0  0  0  0  0  0  0  0
    5.6476    2.2142   -1.4384 O   0  0  0  0  0  0  0  0  0  0  0  0
    1.0555    0.9490    0.6422 C   0  0  0  0  0  0  0  0  0  0  0  0
   -0.3053    0.8102    0.9437 C   0  0  0  0  0  0  0  0  0  0  0  0
   -1.1916    2.3178    1.6894 Br  0  0  0  0  0  0  0  0  0  0  0  0
   -4.0751    1.3227    0.2853 H   0  0  0  0  0  0  0  0  0  0  0  0
   -2.7840    1.3683   -0.9138 H   0  0  0  0  0  0  0  0  0  0  0  0
   -4.3603    0.6995   -1.3562 H   0  0  0  0  0  0  0  0  0  0  0  0
   -2.6574   -1.1020   -0.9488 H   0  0  0  0  0  0  0  0  0  0  0  0
   -5.0594   -1.5850   -0.5188 H   0  0  0  0  0  0  0  0  0  0  0  0
   -4.0386   -2.4444    0.6534 H   0  0  0  0  0  0  0  0  0  0  0  0
   -4.8906   -0.9920    1.1502 H   0  0  0  0  0  0  0  0  0  0  0  0
    1.7142   -2.2370   -0.3305 H   0  0  0  0  0  0  0  0  0  0  0  0
    3.8096   -0.9397    0.0302 H   0  0  0  0  0  0  0  0  0  0  0  0
    3.2836    1.9627   -0.9033 H   0  0  0  0  0  0  0  0  0  0  0  0
    6.6092    2.1004   -1.5900 H   0  0  0  0  0  0  0  0  0  0  0  0
    1.5451    1.9034    0.8228 H   0  0  0  0  0  0  0  0  0  0  0  0
  1  2  1  0
  2  3  1  0
  2  4  1  0
  4  5  1  0
  5  6  2  0
  6  7  1  0
  6  8  1  0
  8  9  2  0
  9 10  1  0
 10 11  2  0
 11 12  1  0
 12 13  2  0
 12 14  1  0
  9 15  1  0
 15 16  2  0
 16 17  1  0
 16  5  1  0
  1 18  1  0
  1 19  1  0
  1 20  1  0
  2 21  1  0
  3 22  1  0
  3 23  1  0
  3 24  1  0
  8 25  1  0
 10 26  1  0
 11 27  1  0
 14 28  1  0
 15 29  1  0
M  END
