
     RDKit          3D

 26 26  0  0  0  0  0  0  0  0999 V2000
   -5.0323    0.2444   -0.2166 C   0  0  0  0  0  0  0  0  0  0  0  0
   -3.5751    0.4167    0.1698 C   0  0  0  0  0  0  0  0  0  0  0  0
   -2.7954   -0.4645   -0.6503 O   0  0  0  0  0  0  0  0  0  0  0  0
   -1.4608   -0.3562   -0.3520 C   0  0  0  0  0  0  0  0  0  0  0  0
   -0.8775   -1.1999    0.6001 C   0  0  0  0  0  0  0  0  0  0  0  0
   -1.8873   -2.5148    1.5273 Br  0  0  0  0  0  0  0  0  0  0  0  0
    0.4898   -1.1077    0.8839 C   0  0  0  0  0  0  0  0  0  0  0  0
    1.3012   -0.1965    0.1961 C   0  0  0  0  0  0  0  0  0  0  0  0
    2.7262   -0.1162    0.5460 C   0  0  0  0  0  0  0  0  0  0  0  0
    3.7053    0.1050   -0.3451 C   0  0  0  0  0  0  0  0  0  0  0  0
    5.1294    0.1718    0.0117 C   0  0  0  0  0  0  0  0  0  0  0  0
    6.0268    0.3751   -0.7859 O   0  0  0  0  0  0  0  0  0  0  0  0
    5.3748   -0.0113    1.3174 O   0  0  0  0  0  0  0  0  0  0  0  0
    0.7191    0.6312   -0.7722 C   0  0  0  0  0  0  0  0  0  0  0  0
   -0.6486    0.5401   -1.0564 C   0  0  0  0  0  0  0  0  0  0  0  0
   -1.3420    1.6516   -2.4323 Br  0  0  0  0  0  0  0  0  0  0  0  0
   -5.3493   -0.7936   -0.0710 H   0  0  0  0  0  0  0  0  0  0  0  0
   -5.6743    0.8969    0.3817 H   0  0  0  0  0  0  0  0  0  0  0  0
   -5.1800    0.4779   -1.2762 H   0  0  0  0  0  0  0  0  0  0  0  0
   -3.4500    0.1727    1.2309 H   0  0  0  0  0  0  0  0  0  0  0  0
   -3.2787    1.4598    0.0109 H   0  0  0  0  0  0  0  0  0  0  0  0
    0.9282   -1.7646    1.6331 H   0  0  0  0  0  0  0  0  0  0  0  0
    2.9637   -0.2727    1.5968 H   0  0  0  0  0  0  0  0  0  0  0  0
    3.5100    0.2381   -1.4032 H   0  0  0  0  0  0  0  0  0  0  0  0
    6.3496    0.0620    1.3837 H   0  0  0  0  0  0  0  0  0  0  0  0
    1.3272    1.3545   -1.3110 H   0  0  0  0  0  0  0  0  0  0  0  0
  1  2  1  0
  2  3  1  0
  3  4  1  0
  4  5  2  0
  5  6  1  0
  5  7  1  0
  7  8  2  0
  8  9  1  0
  9 10  2  0
 10 11  1  0
 11 12  2  0
 11 13  1  0
  8 14  1  0
 14 15  2  0
 15 16  1  0
 15  4  1  0
  1 17  1  0
  1 18  1  0
  1 19  1  0
  2 20  1  0
  2 21  1  0
  7 22  1  0
  9 23  1  0
 10 24  1  0
 13 25  1  0
 14 26  1  0
M  END
