
     RDKit          3D

 16 16  0  0  0  0  0  0  0  0999 V2000
   -2.6146   -1.2045   -1.2476 O   0  0  0  0  0  0  0  0  0  0  0  0
   -1.9485   -0.3885   -0.2635 B   0  0  0  0  0  0  0  0  0  0  0  0
   -2.8095    0.3929    0.6496 O   0  0  0  0  0  0  0  0  0  0  0  0
   -0.4064   -0.2613   -0.0973 C   0  0  0  0  0  0  0  0  0  0  0  0
    0.4883   -1.3229    0.0007 C   0  0  0  0  0  0  0  0  0  0  0  0
    1.8318   -1.0768    0.1452 C   0  0  0  0  0  0  0  0  0  0  0  0
    3.0539   -2.5351    0.2792 Br  0  0  0  0  0  0  0  0  0  0  0  0
    2.3328    0.2232    0.1974 C   0  0  0  0  0  0  0  0  0  0  0  0
    1.4902    1.3088    0.1050 C   0  0  0  0  0  0  0  0  0  0  0  0
    2.0988    3.1124    0.1681 Br  0  0  0  0  0  0  0  0  0  0  0  0
    0.1319    1.0086   -0.0411 C   0  0  0  0  0  0  0  0  0  0  0  0
   -0.6909    2.0875   -0.1314 F   0  0  0  0  0  0  0  0  0  0  0  0
   -3.4831   -0.7668   -1.5115 H   0  0  0  0  0  0  0  0  0  0  0  0
   -2.9471    1.3029    0.2943 H   0  0  0  0  0  0  0  0  0  0  0  0
    0.0632   -2.3036   -0.0438 H   0  0  0  0  0  0  0  0  0  0  0  0
    3.4093    0.4232    0.3131 H   0  0  0  0  0  0  0  0  0  0  0  0
  1  2  1  0
  2  3  1  0
  2  4  1  0
  4  5  2  0
  5  6  1  0
  6  7  1  0
  6  8  2  0
  8  9  1  0
  9 10  1  0
  9 11  2  0
 11 12  1  0
 11  4  1  0
  1 13  1  0
  3 14  1  0
  5 15  1  0
  8 16  1  0
M  END
