
     RDKit          3D

 16 16  0  0  0  0  0  0  0  0999 V2000
   -2.5140    0.3422   -1.7248 O   0  0  0  0  0  0  0  0  0  0  0  0
   -1.7715    0.8627   -0.5900 B   0  0  0  0  0  0  0  0  0  0  0  0
   -2.5419    1.4482    0.5013 O   0  0  0  0  0  0  0  0  0  0  0  0
   -0.3558    0.2753   -0.3153 C   0  0  0  0  0  0  0  0  0  0  0  0
   -0.0425   -1.0634   -0.4443 C   0  0  0  0  0  0  0  0  0  0  0  0
   -1.4223   -2.2758   -0.9923 Br  0  0  0  0  0  0  0  0  0  0  0  0
    1.1927   -1.6041   -0.2090 C   0  0  0  0  0  0  0  0  0  0  0  0
    2.1924   -0.7202    0.1889 C   0  0  0  0  0  0  0  0  0  0  0  0
    1.9838    0.6435    0.3489 C   0  0  0  0  0  0  0  0  0  0  0  0
    3.3715    1.8164    0.8927 Br  0  0  0  0  0  0  0  0  0  0  0  0
    0.6991    1.0727    0.0833 C   0  0  0  0  0  0  0  0  0  0  0  0
    0.5006    2.4187    0.2432 F   0  0  0  0  0  0  0  0  0  0  0  0
   -3.2882   -0.1990   -1.4906 H   0  0  0  0  0  0  0  0  0  0  0  0
   -2.5766    0.7511    1.2245 H   0  0  0  0  0  0  0  0  0  0  0  0
    1.3871   -2.6639   -0.3250 H   0  0  0  0  0  0  0  0  0  0  0  0
    3.1856   -1.1045    0.3860 H   0  0  0  0  0  0  0  0  0  0  0  0
  1  2  1  0
  2  3  1  0
  2  4  1  0
  4  5  2  0
  5  6  1  0
  5  7  1  0
  7  8  2  0
  8  9  1  0
  9 10  1  0
  9 11  2  0
 11 12  1  0
 11  4  1  0
  1 13  1  0
  3 14  1  0
  7 15  1  0
  8 16  1  0
M  END
