
     RDKit          3D

 18 19  0  0  0  0  0  0  0  0999 V2000
   -3.4692   -0.0723    1.1026 O   0  0  0  0  0  0  0  0  0  0  0  0
   -2.9157   -0.1826   -0.2064 C   0  0  0  0  0  0  0  0  0  0  0  0
   -1.4264   -0.1092   -0.1736 C   0  0  0  0  0  0  0  0  0  0  0  0
   -0.5002   -0.6510   -1.0459 C   0  0  0  0  0  0  0  0  0  0  0  0
    0.7201   -0.2915   -0.5449 N   0  0  0  0  0  0  0  0  0  0  0  0
    2.0076   -0.5387   -0.9753 C   0  0  0  0  0  0  0  0  0  0  0  0
    3.0269   -0.0384   -0.2522 C   0  0  0  0  0  0  0  0  0  0  0  0
    4.8004   -0.3257   -0.7644 Br  0  0  0  0  0  0  0  0  0  0  0  0
    2.8613    0.7115    0.9004 N   0  0  0  0  0  0  0  0  0  0  0  0
    1.6407    0.9394    1.3002 C   0  0  0  0  0  0  0  0  0  0  0  0
    1.3946    1.9665    2.8805 Br  0  0  0  0  0  0  0  0  0  0  0  0
    0.4931    0.4437    0.5890 C   0  0  0  0  0  0  0  0  0  0  0  0
   -0.7903    0.5782    0.8476 N   0  0  0  0  0  0  0  0  0  0  0  0
   -2.8054    0.4338    1.6127 H   0  0  0  0  0  0  0  0  0  0  0  0
   -3.3137    0.6359   -0.8139 H   0  0  0  0  0  0  0  0  0  0  0  0
   -3.2511   -1.1306   -0.6374 H   0  0  0  0  0  0  0  0  0  0  0  0
   -0.6088   -1.2440   -1.9432 H   0  0  0  0  0  0  0  0  0  0  0  0
    2.1361   -1.1248   -1.8759 H   0  0  0  0  0  0  0  0  0  0  0  0
  1  2  1  0
  2  3  1  0
  3  4  2  0
  4  5  1  0
  5  6  1  0
  6  7  2  0
  7  8  1  0
  7  9  1  0
  9 10  2  0
 10 11  1  0
 10 12  1  0
 12 13  2  0
 13  3  1  0
 12  5  1  0
  1 14  1  0
  2 15  1  0
  2 16  1  0
  4 17  1  0
  6 18  1  0
M  END
