
     RDKit          3D

 42 45  0  0  0  0  0  0  0  0999 V2000
   -0.8470   -2.8623   -2.0071 C   0  0  0  0  0  0  0  0  0  0  0  0
   -0.9087   -2.6348   -0.5969 O   0  0  0  0  0  0  0  0  0  0  0  0
   -1.5424   -1.4485   -0.3093 C   0  0  0  0  0  0  0  0  0  0  0  0
   -2.9309   -1.4188   -0.1567 C   0  0  0  0  0  0  0  0  0  0  0  0
   -4.0022   -2.9702   -0.3823 Br  0  0  0  0  0  0  0  0  0  0  0  0
   -3.5702   -0.2295    0.1868 C   0  0  0  0  0  0  0  0  0  0  0  0
   -2.8351    0.9414    0.4125 C   0  0  0  0  0  0  0  0  0  0  0  0
   -3.5016    2.1263    0.7672 C   0  0  0  0  0  0  0  0  0  0  0  0
   -2.7959    3.3018    1.0155 C   0  0  0  0  0  0  0  0  0  0  0  0
   -1.4122    3.3068    0.9162 C   0  0  0  0  0  0  0  0  0  0  0  0
   -0.7364    2.1369    0.5630 C   0  0  0  0  0  0  0  0  0  0  0  0
   -1.4218    0.9266    0.2944 C   0  0  0  0  0  0  0  0  0  0  0  0
   -0.7661   -0.2894   -0.0775 C   0  0  0  0  0  0  0  0  0  0  0  0
    0.7136   -0.3522   -0.2138 C   0  0  0  0  0  0  0  0  0  0  0  0
    1.3127   -0.1377   -1.4771 C   0  0  0  0  0  0  0  0  0  0  0  0
    0.5126    0.0777   -2.5758 O   0  0  0  0  0  0  0  0  0  0  0  0
    0.3383    1.4732   -2.8297 C   0  0  0  0  0  0  0  0  0  0  0  0
    2.6977   -0.2327   -1.6353 C   0  0  0  0  0  0  0  0  0  0  0  0
    3.5307   -0.0321   -3.3296 Br  0  0  0  0  0  0  0  0  0  0  0  0
    3.5098   -0.4925   -0.5340 C   0  0  0  0  0  0  0  0  0  0  0  0
    2.9539   -0.6861    0.7373 C   0  0  0  0  0  0  0  0  0  0  0  0
    3.7930   -0.9479    1.8334 C   0  0  0  0  0  0  0  0  0  0  0  0
    3.2680   -1.1563    3.1071 C   0  0  0  0  0  0  0  0  0  0  0  0
    1.8950   -1.1090    3.3007 C   0  0  0  0  0  0  0  0  0  0  0  0
    1.0484   -0.8500    2.2206 C   0  0  0  0  0  0  0  0  0  0  0  0
    1.5475   -0.6273    0.9145 C   0  0  0  0  0  0  0  0  0  0  0  0
   -1.3703   -2.1065   -2.6051 H   0  0  0  0  0  0  0  0  0  0  0  0
   -1.2882   -3.8413   -2.2170 H   0  0  0  0  0  0  0  0  0  0  0  0
    0.2038   -2.8932   -2.3098 H   0  0  0  0  0  0  0  0  0  0  0  0
   -4.6531   -0.2177    0.2941 H   0  0  0  0  0  0  0  0  0  0  0  0
   -4.5862    2.1429    0.8582 H   0  0  0  0  0  0  0  0  0  0  0  0
   -3.3275    4.2087    1.2915 H   0  0  0  0  0  0  0  0  0  0  0  0
   -0.8533    4.2174    1.1162 H   0  0  0  0  0  0  0  0  0  0  0  0
    0.3494    2.1820    0.5032 H   0  0  0  0  0  0  0  0  0  0  0  0
    0.5316    1.6534   -3.8915 H   0  0  0  0  0  0  0  0  0  0  0  0
    1.0008    2.1189   -2.2410 H   0  0  0  0  0  0  0  0  0  0  0  0
   -0.7022    1.7414   -2.6250 H   0  0  0  0  0  0  0  0  0  0  0  0
    4.5878   -0.5569   -0.6681 H   0  0  0  0  0  0  0  0  0  0  0  0
    4.8725   -0.9964    1.7029 H   0  0  0  0  0  0  0  0  0  0  0  0
    3.9307   -1.3606    3.9437 H   0  0  0  0  0  0  0  0  0  0  0  0
    1.4757   -1.2771    4.2893 H   0  0  0  0  0  0  0  0  0  0  0  0
   -0.0225   -0.8284    2.4143 H   0  0  0  0  0  0  0  0  0  0  0  0
  1  2  1  0
  2  3  1  0
  3  4  2  0
  4  5  1  0
  4  6  1  0
  6  7  2  0
  7  8  1  0
  8  9  2  0
  9 10  1  0
 10 11  2  0
 11 12  1  0
 12 13  2  0
 13 14  1  0
 14 15  2  0
 15 16  1  0
 16 17  1  0
 15 18  1  0
 18 19  1  0
 18 20  2  0
 20 21  1  0
 21 22  2  0
 22 23  1  0
 23 24  2  0
 24 25  1  0
 25 26  2  0
 13  3  1  0
 26 14  1  0
 12  7  1  0
 26 21  1  0
  1 27  1  0
  1 28  1  0
  1 29  1  0
  6 30  1  0
  8 31  1  0
  9 32  1  0
 10 33  1  0
 11 34  1  0
 17 35  1  0
 17 36  1  0
 17 37  1  0
 20 38  1  0
 22 39  1  0
 23 40  1  0
 24 41  1  0
 25 42  1  0
M  END
