
     RDKit          3D

 42 45  0  0  0  0  0  0  0  0999 V2000
   -0.4991    2.3352   -2.4684 C   0  0  0  0  0  0  0  0  0  0  0  0
   -0.8496    0.9582   -2.6123 O   0  0  0  0  0  0  0  0  0  0  0  0
   -1.5075    0.4889   -1.4993 C   0  0  0  0  0  0  0  0  0  0  0  0
   -2.9040    0.5154   -1.4685 C   0  0  0  0  0  0  0  0  0  0  0  0
   -3.9249    1.2223   -2.9052 Br  0  0  0  0  0  0  0  0  0  0  0  0
   -3.5886    0.0138   -0.3641 C   0  0  0  0  0  0  0  0  0  0  0  0
   -2.8945   -0.5395    0.7193 C   0  0  0  0  0  0  0  0  0  0  0  0
   -3.6076   -1.0408    1.8211 C   0  0  0  0  0  0  0  0  0  0  0  0
   -2.9462   -1.6066    2.9090 C   0  0  0  0  0  0  0  0  0  0  0  0
   -1.5610   -1.6806    2.9084 C   0  0  0  0  0  0  0  0  0  0  0  0
   -0.8388   -1.1868    1.8199 C   0  0  0  0  0  0  0  0  0  0  0  0
   -1.4773   -0.6010    0.6988 C   0  0  0  0  0  0  0  0  0  0  0  0
   -0.7729   -0.0844   -0.4353 C   0  0  0  0  0  0  0  0  0  0  0  0
    0.7109   -0.1534   -0.5148 C   0  0  0  0  0  0  0  0  0  0  0  0
    1.3271   -1.1811   -1.2662 C   0  0  0  0  0  0  0  0  0  0  0  0
    0.5527   -2.0973   -1.9390 O   0  0  0  0  0  0  0  0  0  0  0  0
    0.2648   -3.2344   -1.1243 C   0  0  0  0  0  0  0  0  0  0  0  0
    2.7171   -1.2328   -1.3976 C   0  0  0  0  0  0  0  0  0  0  0  0
    3.5759   -2.5619   -2.4472 Br  0  0  0  0  0  0  0  0  0  0  0  0
    3.5159   -0.2929   -0.7507 C   0  0  0  0  0  0  0  0  0  0  0  0
    2.9428    0.7250    0.0221 C   0  0  0  0  0  0  0  0  0  0  0  0
    3.7696    1.6626    0.6634 C   0  0  0  0  0  0  0  0  0  0  0  0
    3.2292    2.6927    1.4302 C   0  0  0  0  0  0  0  0  0  0  0  0
    1.8527    2.8000    1.5644 C   0  0  0  0  0  0  0  0  0  0  0  0
    1.0183    1.8756    0.9323 C   0  0  0  0  0  0  0  0  0  0  0  0
    1.5326    0.8131    0.1486 C   0  0  0  0  0  0  0  0  0  0  0  0
   -0.6892    2.8335   -3.4238 H   0  0  0  0  0  0  0  0  0  0  0  0
    0.5703    2.4147   -2.2536 H   0  0  0  0  0  0  0  0  0  0  0  0
   -1.0698    2.8558   -1.6901 H   0  0  0  0  0  0  0  0  0  0  0  0
   -4.6763    0.0467   -0.3508 H   0  0  0  0  0  0  0  0  0  0  0  0
   -4.6951   -0.9967    1.8405 H   0  0  0  0  0  0  0  0  0  0  0  0
   -3.5138   -1.9899    3.7529 H   0  0  0  0  0  0  0  0  0  0  0  0
   -1.0368   -2.1212    3.7526 H   0  0  0  0  0  0  0  0  0  0  0  0
    0.2460   -1.2653    1.8602 H   0  0  0  0  0  0  0  0  0  0  0  0
   -0.7673   -3.1711   -0.7683 H   0  0  0  0  0  0  0  0  0  0  0  0
    0.3519   -4.1282   -1.7493 H   0  0  0  0  0  0  0  0  0  0  0  0
    0.9421   -3.3461   -0.2691 H   0  0  0  0  0  0  0  0  0  0  0  0
    4.5976   -0.3490   -0.8566 H   0  0  0  0  0  0  0  0  0  0  0  0
    4.8522    1.5995    0.5681 H   0  0  0  0  0  0  0  0  0  0  0  0
    3.8837    3.4095    1.9191 H   0  0  0  0  0  0  0  0  0  0  0  0
    1.4224    3.6011    2.1600 H   0  0  0  0  0  0  0  0  0  0  0  0
   -0.0554    1.9970    1.0634 H   0  0  0  0  0  0  0  0  0  0  0  0
  1  2  1  0
  2  3  1  0
  3  4  2  0
  4  5  1  0
  4  6  1  0
  6  7  2  0
  7  8  1  0
  8  9  2  0
  9 10  1  0
 10 11  2  0
 11 12  1  0
 12 13  2  0
 13 14  1  0
 14 15  2  0
 15 16  1  0
 16 17  1  0
 15 18  1  0
 18 19  1  0
 18 20  2  0
 20 21  1  0
 21 22  2  0
 22 23  1  0
 23 24  2  0
 24 25  1  0
 25 26  2  0
 13  3  1  0
 26 14  1  0
 12  7  1  0
 26 21  1  0
  1 27  1  0
  1 28  1  0
  1 29  1  0
  6 30  1  0
  8 31  1  0
  9 32  1  0
 10 33  1  0
 11 34  1  0
 17 35  1  0
 17 36  1  0
 17 37  1  0
 20 38  1  0
 22 39  1  0
 23 40  1  0
 24 41  1  0
 25 42  1  0
M  END
