
     RDKit          3D

 12 12  0  0  0  0  0  0  0  0999 V2000
    3.0252   -1.3389    0.0044 Br  0  0  0  0  0  0  0  0  0  0  0  0
    1.3092   -0.5462    0.0017 C   0  0  0  0  0  0  0  0  0  0  0  0
    1.1905    0.8416   -0.0059 C   0  0  0  0  0  0  0  0  0  0  0  0
   -0.0773    1.4267   -0.0078 C   0  0  0  0  0  0  0  0  0  0  0  0
   -1.2245    0.6245   -0.0022 C   0  0  0  0  0  0  0  0  0  0  0  0
   -2.9024    1.5138   -0.0054 Br  0  0  0  0  0  0  0  0  0  0  0  0
   -1.0975   -0.7702    0.0054 C   0  0  0  0  0  0  0  0  0  0  0  0
   -2.5901   -1.9454    0.0134 Br  0  0  0  0  0  0  0  0  0  0  0  0
    0.1739   -1.3552    0.0073 C   0  0  0  0  0  0  0  0  0  0  0  0
    2.0742    1.4752   -0.0102 H   0  0  0  0  0  0  0  0  0  0  0  0
   -0.1600    2.5114   -0.0137 H   0  0  0  0  0  0  0  0  0  0  0  0
    0.2788   -2.4374    0.0132 H   0  0  0  0  0  0  0  0  0  0  0  0
  1  2  1  0
  2  3  2  0
  3  4  1  0
  4  5  2  0
  5  6  1  0
  5  7  1  0
  7  8  1  0
  7  9  2  0
  9  2  1  0
  3 10  1  0
  4 11  1  0
  9 12  1  0
M  END
