
     RDKit          3D

 12 12  0  0  0  0  0  0  0  0999 V2000
    3.2222   -0.3970    0.0084 Br  0  0  0  0  0  0  0  0  0  0  0  0
    1.3321   -0.1671    0.0033 C   0  0  0  0  0  0  0  0  0  0  0  0
    0.5672   -1.3390   -0.0656 C   0  0  0  0  0  0  0  0  0  0  0  0
   -0.8234   -1.2719   -0.0747 C   0  0  0  0  0  0  0  0  0  0  0  0
   -1.4552   -0.0327   -0.0150 C   0  0  0  0  0  0  0  0  0  0  0  0
   -0.6991    1.1449    0.0541 C   0  0  0  0  0  0  0  0  0  0  0  0
   -1.6844    2.7723    0.1311 Br  0  0  0  0  0  0  0  0  0  0  0  0
    0.7053    1.0895    0.0640 C   0  0  0  0  0  0  0  0  0  0  0  0
    1.7420    2.6908    0.1580 Br  0  0  0  0  0  0  0  0  0  0  0  0
    1.0498   -2.3133   -0.1126 H   0  0  0  0  0  0  0  0  0  0  0  0
   -1.4137   -2.1838   -0.1282 H   0  0  0  0  0  0  0  0  0  0  0  0
   -2.5427    0.0072   -0.0228 H   0  0  0  0  0  0  0  0  0  0  0  0
  1  2  1  0
  2  3  2  0
  3  4  1  0
  4  5  2  0
  5  6  1  0
  6  7  1  0
  6  8  2  0
  8  9  1  0
  8  2  1  0
  3 10  1  0
  4 11  1  0
  5 12  1  0
M  END
