
     RDKit          3D

 12 12  0  0  0  0  0  0  0  0999 V2000
    2.9641   -0.8531    0.1060 Cl  0  0  0  0  0  0  0  0  0  0  0  0
    1.2985   -0.3835    0.0469 C   0  0  0  0  0  0  0  0  0  0  0  0
    0.3545   -1.4171    0.0807 C   0  0  0  0  0  0  0  0  0  0  0  0
   -1.0068   -1.1280    0.0374 C   0  0  0  0  0  0  0  0  0  0  0  0
   -1.4286    0.1970   -0.0400 C   0  0  0  0  0  0  0  0  0  0  0  0
   -0.4912    1.2381   -0.0743 C   0  0  0  0  0  0  0  0  0  0  0  0
   -1.1957    3.0031   -0.1804 Br  0  0  0  0  0  0  0  0  0  0  0  0
    0.8843    0.9569   -0.0311 C   0  0  0  0  0  0  0  0  0  0  0  0
    2.1757    2.3630   -0.0769 Br  0  0  0  0  0  0  0  0  0  0  0  0
    0.6779   -2.4543    0.1411 H   0  0  0  0  0  0  0  0  0  0  0  0
   -1.7374   -1.9333    0.0638 H   0  0  0  0  0  0  0  0  0  0  0  0
   -2.4952    0.4113   -0.0733 H   0  0  0  0  0  0  0  0  0  0  0  0
  1  2  1  0
  2  3  2  0
  3  4  1  0
  4  5  2  0
  5  6  1  0
  6  7  1  0
  6  8  2  0
  8  9  1  0
  8  2  1  0
  3 10  1  0
  4 11  1  0
  5 12  1  0
M  END
