
     RDKit          3D

 12 12  0  0  0  0  0  0  0  0999 V2000
   -1.7616    2.1649    0.0887 F   0  0  0  0  0  0  0  0  0  0  0  0
   -0.9368    1.1109    0.0457 C   0  0  0  0  0  0  0  0  0  0  0  0
   -1.4697   -0.1714    0.0001 C   0  0  0  0  0  0  0  0  0  0  0  0
   -0.6116   -1.2705   -0.0447 C   0  0  0  0  0  0  0  0  0  0  0  0
    0.7764   -1.0789   -0.0437 C   0  0  0  0  0  0  0  0  0  0  0  0
    1.8640   -2.6346   -0.1067 Br  0  0  0  0  0  0  0  0  0  0  0  0
    1.3014    0.2202    0.0024 C   0  0  0  0  0  0  0  0  0  0  0  0
    3.1652    0.5851    0.0078 Br  0  0  0  0  0  0  0  0  0  0  0  0
    0.4375    1.3182    0.0473 C   0  0  0  0  0  0  0  0  0  0  0  0
   -2.5471   -0.3069   -0.0001 H   0  0  0  0  0  0  0  0  0  0  0  0
   -1.0334   -2.2725   -0.0803 H   0  0  0  0  0  0  0  0  0  0  0  0
    0.8156    2.3354    0.0836 H   0  0  0  0  0  0  0  0  0  0  0  0
  1  2  1  0
  2  3  2  0
  3  4  1  0
  4  5  2  0
  5  6  1  0
  5  7  1  0
  7  8  1  0
  7  9  2  0
  9  2  1  0
  3 10  1  0
  4 11  1  0
  9 12  1  0
M  END
