
     RDKit          3D

 12 12  0  0  0  0  0  0  0  0999 V2000
   -2.5636   -0.9279   -0.0138 F   0  0  0  0  0  0  0  0  0  0  0  0
   -1.2907   -0.5047   -0.0096 C   0  0  0  0  0  0  0  0  0  0  0  0
   -0.2825   -1.4625   -0.0972 C   0  0  0  0  0  0  0  0  0  0  0  0
    1.0486   -1.0580   -0.0956 C   0  0  0  0  0  0  0  0  0  0  0  0
    1.3533    0.2988   -0.0062 C   0  0  0  0  0  0  0  0  0  0  0  0
    2.6465    0.6553   -0.0072 F   0  0  0  0  0  0  0  0  0  0  0  0
    0.3462    1.2668    0.0822 C   0  0  0  0  0  0  0  0  0  0  0  0
    0.8708    3.0896    0.2000 Br  0  0  0  0  0  0  0  0  0  0  0  0
   -0.9927    0.8600    0.0805 C   0  0  0  0  0  0  0  0  0  0  0  0
   -2.4430    2.0827    0.1958 Br  0  0  0  0  0  0  0  0  0  0  0  0
   -0.5450   -2.5142   -0.1660 H   0  0  0  0  0  0  0  0  0  0  0  0
    1.8520   -1.7859   -0.1630 H   0  0  0  0  0  0  0  0  0  0  0  0
  1  2  1  0
  2  3  2  0
  3  4  1  0
  4  5  2  0
  5  6  1  0
  5  7  1  0
  7  8  1  0
  7  9  2  0
  9 10  1  0
  9  2  1  0
  3 11  1  0
  4 12  1  0
M  END
