
     RDKit          3D

 20 20  0  0  0  0  0  0  0  0999 V2000
   -1.6772   -2.6265   -0.2002 C   0  0  0  0  0  0  0  0  0  0  0  0
   -0.4502   -1.9112   -0.1703 O   0  0  0  0  0  0  0  0  0  0  0  0
   -0.5056   -0.5461   -0.0363 C   0  0  0  0  0  0  0  0  0  0  0  0
   -1.6904    0.1895    0.0734 C   0  0  0  0  0  0  0  0  0  0  0  0
   -1.6506    1.5822    0.2069 C   0  0  0  0  0  0  0  0  0  0  0  0
   -3.3170    2.4856    0.3486 Br  0  0  0  0  0  0  0  0  0  0  0  0
   -0.4213    2.2450    0.2311 C   0  0  0  0  0  0  0  0  0  0  0  0
   -0.2649    4.1310    0.4086 Br  0  0  0  0  0  0  0  0  0  0  0  0
    0.7678    1.5147    0.1218 C   0  0  0  0  0  0  0  0  0  0  0  0
    0.7349    0.1226   -0.0119 C   0  0  0  0  0  0  0  0  0  0  0  0
    1.8486   -0.6720   -0.1250 O   0  0  0  0  0  0  0  0  0  0  0  0
    3.1207   -0.0400   -0.1051 C   0  0  0  0  0  0  0  0  0  0  0  0
   -2.2864   -2.3296   -1.0602 H   0  0  0  0  0  0  0  0  0  0  0  0
   -2.2285   -2.5041    0.7379 H   0  0  0  0  0  0  0  0  0  0  0  0
   -1.4421   -3.6894   -0.3110 H   0  0  0  0  0  0  0  0  0  0  0  0
   -2.6571   -0.3029    0.0572 H   0  0  0  0  0  0  0  0  0  0  0  0
    1.7104    2.0516    0.1431 H   0  0  0  0  0  0  0  0  0  0  0  0
    3.8827   -0.8189   -0.2052 H   0  0  0  0  0  0  0  0  0  0  0  0
    3.2922    0.4722    0.8474 H   0  0  0  0  0  0  0  0  0  0  0  0
    3.2339    0.6463   -0.9507 H   0  0  0  0  0  0  0  0  0  0  0  0
  1  2  1  0
  2  3  1  0
  3  4  2  0
  4  5  1  0
  5  6  1  0
  5  7  2  0
  7  8  1  0
  7  9  1  0
  9 10  2  0
 10 11  1  0
 11 12  1  0
 10  3  1  0
  1 13  1  0
  1 14  1  0
  1 15  1  0
  4 16  1  0
  9 17  1  0
 12 18  1  0
 12 19  1  0
 12 20  1  0
M  END
