
     RDKit          3D

 17 17  0  0  0  0  0  0  0  0999 V2000
   -2.1442   -0.5428    0.1502 C   0  0  0  0  0  0  0  0  0  0  0  0
   -0.6525   -0.3703    0.0714 C   0  0  0  0  0  0  0  0  0  0  0  0
    0.1734   -1.4962    0.2299 C   0  0  0  0  0  0  0  0  0  0  0  0
    1.5711   -1.3886    0.1611 C   0  0  0  0  0  0  0  0  0  0  0  0
    2.5713   -2.9883    0.3839 Br  0  0  0  0  0  0  0  0  0  0  0  0
    2.1666   -0.1423   -0.0641 C   0  0  0  0  0  0  0  0  0  0  0  0
    4.0462    0.1032   -0.1772 Br  0  0  0  0  0  0  0  0  0  0  0  0
    1.3667    0.9933   -0.2119 C   0  0  0  0  0  0  0  0  0  0  0  0
   -0.0286    0.8732   -0.1337 C   0  0  0  0  0  0  0  0  0  0  0  0
   -0.8120    2.0963   -0.2765 N   0  0  0  0  0  4  0  0  0  0  0  0
   -1.6780    2.3242    0.5777 O   0  0  0  0  0  0  0  0  0  0  0  0
   -0.5372    2.8301   -1.2352 O   0  0  0  0  0  1  0  0  0  0  0  0
   -2.4276   -1.5944    0.0319 H   0  0  0  0  0  0  0  0  0  0  0  0
   -2.5150   -0.2014    1.1214 H   0  0  0  0  0  0  0  0  0  0  0  0
   -2.6446    0.0092   -0.6519 H   0  0  0  0  0  0  0  0  0  0  0  0
   -0.2791   -2.4721    0.4054 H   0  0  0  0  0  0  0  0  0  0  0  0
    1.8236    1.9670   -0.3823 H   0  0  0  0  0  0  0  0  0  0  0  0
  1  2  1  0
  2  3  2  0
  3  4  1  0
  4  5  1  0
  4  6  2  0
  6  7  1  0
  6  8  1  0
  8  9  2  0
  9 10  1  0
 10 11  2  0
 10 12  1  0
  9  2  1  0
  1 13  1  0
  1 14  1  0
  1 15  1  0
  3 16  1  0
  8 17  1  0
M  CHG  2  10   1  12  -1
M  END
