
     RDKit          3D

 12 12  0  0  0  0  0  0  0  0999 V2000
    2.2908   -2.2477    0.0357 Br  0  0  0  0  0  0  0  0  0  0  0  0
    0.9432   -0.9094    0.0146 C   0  0  0  0  0  0  0  0  0  0  0  0
   -0.3876   -1.3432    0.0056 C   0  0  0  0  0  0  0  0  0  0  0  0
   -1.4305   -0.4156   -0.0100 C   0  0  0  0  0  0  0  0  0  0  0  0
   -1.1485    0.9485   -0.0167 C   0  0  0  0  0  0  0  0  0  0  0  0
    0.1767    1.3867   -0.0078 C   0  0  0  0  0  0  0  0  0  0  0  0
    1.2265    0.4610    0.0078 C   0  0  0  0  0  0  0  0  0  0  0  0
    2.9943    1.1555    0.0190 Br  0  0  0  0  0  0  0  0  0  0  0  0
   -0.6234   -2.4049    0.0107 H   0  0  0  0  0  0  0  0  0  0  0  0
   -2.4626   -0.7583   -0.0169 H   0  0  0  0  0  0  0  0  0  0  0  0
   -1.9601    1.6723   -0.0288 H   0  0  0  0  0  0  0  0  0  0  0  0
    0.3812    2.4550   -0.0132 H   0  0  0  0  0  0  0  0  0  0  0  0
  1  2  1  0
  2  3  2  0
  3  4  1  0
  4  5  2  0
  5  6  1  0
  6  7  2  0
  7  8  1  0
  7  2  1  0
  3  9  1  0
  4 10  1  0
  5 11  1  0
  6 12  1  0
M  END
