
     RDKit          3D

 14 14  0  0  0  0  0  0  0  0999 V2000
   -3.0232   -0.3469    0.8994 O   0  0  0  0  0  0  0  0  0  0  0  0
   -2.3638    0.3573    0.1255 N   0  0  0  0  0  4  0  0  0  0  0  0
   -2.8162    1.2783   -0.5682 O   0  0  0  0  0  1  0  0  0  0  0  0
   -0.9372    0.1226    0.0495 C   0  0  0  0  0  0  0  0  0  0  0  0
   -0.0620    1.2147    0.0395 C   0  0  0  0  0  0  0  0  0  0  0  0
    1.3162    0.9817   -0.0287 C   0  0  0  0  0  0  0  0  0  0  0  0
    2.4494    2.5053   -0.0321 Br  0  0  0  0  0  0  0  0  0  0  0  0
    1.8035   -0.3336   -0.0901 C   0  0  0  0  0  0  0  0  0  0  0  0
    3.6544   -0.7474   -0.1852 Br  0  0  0  0  0  0  0  0  0  0  0  0
    0.9106   -1.4124   -0.0871 C   0  0  0  0  0  0  0  0  0  0  0  0
   -0.4602   -1.1803   -0.0186 C   0  0  0  0  0  0  0  0  0  0  0  0
   -1.2885   -2.2322   -0.0483 F   0  0  0  0  0  0  0  0  0  0  0  0
   -0.4493    2.2311    0.0864 H   0  0  0  0  0  0  0  0  0  0  0  0
    1.2663   -2.4382   -0.1420 H   0  0  0  0  0  0  0  0  0  0  0  0
  1  2  2  0
  2  3  1  0
  2  4  1  0
  4  5  2  0
  5  6  1  0
  6  7  1  0
  6  8  2  0
  8  9  1  0
  8 10  1  0
 10 11  2  0
 11 12  1  0
 11  4  1  0
  5 13  1  0
 10 14  1  0
M  CHG  2   2   1   3  -1
M  END
