
     RDKit          3D

 12 12  0  0  0  0  0  0  0  0999 V2000
   -1.1646   -2.9500   -0.0548 Cl  0  0  0  0  0  0  0  0  0  0  0  0
   -0.5267   -1.3532   -0.0252 C   0  0  0  0  0  0  0  0  0  0  0  0
    0.8499   -1.1597   -0.0382 C   0  0  0  0  0  0  0  0  0  0  0  0
    1.3701    0.1385   -0.0142 C   0  0  0  0  0  0  0  0  0  0  0  0
    3.0955    0.2812   -0.0328 Cl  0  0  0  0  0  0  0  0  0  0  0  0
    0.5126    1.2519    0.0230 C   0  0  0  0  0  0  0  0  0  0  0  0
    1.2315    3.0203    0.0556 Br  0  0  0  0  0  0  0  0  0  0  0  0
   -0.8759    1.0365    0.0357 C   0  0  0  0  0  0  0  0  0  0  0  0
   -2.1521    2.4478    0.0853 Br  0  0  0  0  0  0  0  0  0  0  0  0
   -1.3919   -0.2646    0.0115 C   0  0  0  0  0  0  0  0  0  0  0  0
    1.5186   -2.0170   -0.0670 H   0  0  0  0  0  0  0  0  0  0  0  0
   -2.4670   -0.4317    0.0213 H   0  0  0  0  0  0  0  0  0  0  0  0
  1  2  1  0
  2  3  2  0
  3  4  1  0
  4  5  1  0
  4  6  2  0
  6  7  1  0
  6  8  1  0
  8  9  1  0
  8 10  2  0
 10  2  1  0
  3 11  1  0
 10 12  1  0
M  END
