
     RDKit          3D

 18 18  0  0  0  0  0  0  0  0999 V2000
   -2.6681    0.6764    0.1494 C   0  0  0  0  0  0  0  0  0  0  0  0
   -1.8171   -0.8077   -0.3187 S   0  0  0  0  0  0  0  0  0  0  0  0
   -2.0256   -1.0241   -1.7370 O   0  0  0  0  0  0  0  0  0  0  0  0
   -2.1396   -1.8387    0.6487 O   0  0  0  0  0  0  0  0  0  0  0  0
   -0.1043   -0.3862   -0.0950 C   0  0  0  0  0  0  0  0  0  0  0  0
    0.5287   -0.6834    1.1131 C   0  0  0  0  0  0  0  0  0  0  0  0
    1.8785   -0.3667    1.2748 C   0  0  0  0  0  0  0  0  0  0  0  0
    2.5945    0.2352    0.2318 C   0  0  0  0  0  0  0  0  0  0  0  0
    4.4239    0.6297    0.5551 Br  0  0  0  0  0  0  0  0  0  0  0  0
    1.9550    0.5151   -0.9833 C   0  0  0  0  0  0  0  0  0  0  0  0
    2.8408    1.3214   -2.4573 Br  0  0  0  0  0  0  0  0  0  0  0  0
    0.6025    0.1987   -1.1495 C   0  0  0  0  0  0  0  0  0  0  0  0
   -2.3577    1.4891   -0.5100 H   0  0  0  0  0  0  0  0  0  0  0  0
   -3.7405    0.5002    0.0415 H   0  0  0  0  0  0  0  0  0  0  0  0
   -2.4333    0.9090    1.1898 H   0  0  0  0  0  0  0  0  0  0  0  0
   -0.0114   -1.1662    1.9257 H   0  0  0  0  0  0  0  0  0  0  0  0
    2.3682   -0.6005    2.2184 H   0  0  0  0  0  0  0  0  0  0  0  0
    0.1054    0.3985   -2.0973 H   0  0  0  0  0  0  0  0  0  0  0  0
  1  2  1  0
  2  3  2  0
  2  4  2  0
  2  5  1  0
  5  6  2  0
  6  7  1  0
  7  8  2  0
  8  9  1  0
  8 10  1  0
 10 11  1  0
 10 12  2  0
 12  5  1  0
  1 13  1  0
  1 14  1  0
  1 15  1  0
  6 16  1  0
  7 17  1  0
 12 18  1  0
M  END
