
     RDKit          3D

 12 12  0  0  0  0  0  0  0  0999 V2000
   -0.7480   -2.6215   -0.0403 F   0  0  0  0  0  0  0  0  0  0  0  0
   -0.4141   -1.3225   -0.0207 C   0  0  0  0  0  0  0  0  0  0  0  0
   -1.4427   -0.3825   -0.0178 C   0  0  0  0  0  0  0  0  0  0  0  0
   -1.1317    0.9733    0.0024 C   0  0  0  0  0  0  0  0  0  0  0  0
    0.2038    1.3707    0.0194 C   0  0  0  0  0  0  0  0  0  0  0  0
    0.4695    2.6854    0.0387 F   0  0  0  0  0  0  0  0  0  0  0  0
    1.2426    0.4326    0.0167 C   0  0  0  0  0  0  0  0  0  0  0  0
    3.0287    1.0814    0.0410 Br  0  0  0  0  0  0  0  0  0  0  0  0
    0.9297   -0.9312   -0.0037 C   0  0  0  0  0  0  0  0  0  0  0  0
    2.2543   -2.2939   -0.0093 Br  0  0  0  0  0  0  0  0  0  0  0  0
   -2.4761   -0.7168   -0.0314 H   0  0  0  0  0  0  0  0  0  0  0  0
   -1.9160    1.7248    0.0051 H   0  0  0  0  0  0  0  0  0  0  0  0
  1  2  1  0
  2  3  2  0
  3  4  1  0
  4  5  2  0
  5  6  1  0
  5  7  1  0
  7  8  1  0
  7  9  2  0
  9 10  1  0
  9  2  1  0
  3 11  1  0
  4 12  1  0
M  END
