
     RDKit          3D

 12 12  0  0  0  0  0  0  0  0999 V2000
   -1.9943    1.9534    0.0658 F   0  0  0  0  0  0  0  0  0  0  0  0
   -1.0561    0.9987    0.0335 C   0  0  0  0  0  0  0  0  0  0  0  0
   -1.4411   -0.3352   -0.0170 C   0  0  0  0  0  0  0  0  0  0  0  0
   -0.4645   -1.3311   -0.0507 C   0  0  0  0  0  0  0  0  0  0  0  0
    0.8930   -0.9849   -0.0335 C   0  0  0  0  0  0  0  0  0  0  0  0
    2.1490   -2.4087   -0.0821 Br  0  0  0  0  0  0  0  0  0  0  0  0
    1.2684    0.3649    0.0175 C   0  0  0  0  0  0  0  0  0  0  0  0
    3.0792    0.9367    0.0444 Br  0  0  0  0  0  0  0  0  0  0  0  0
    0.2862    1.3590    0.0511 C   0  0  0  0  0  0  0  0  0  0  0  0
   -2.4963   -0.5908   -0.0298 H   0  0  0  0  0  0  0  0  0  0  0  0
   -0.7708   -2.3741   -0.0902 H   0  0  0  0  0  0  0  0  0  0  0  0
    0.5473    2.4122    0.0909 H   0  0  0  0  0  0  0  0  0  0  0  0
  1  2  1  0
  2  3  2  0
  3  4  1  0
  4  5  2  0
  5  6  1  0
  5  7  1  0
  7  8  1  0
  7  9  2  0
  9  2  1  0
  3 10  1  0
  4 11  1  0
  9 12  1  0
M  END
