
     RDKit          3D

 15 15  0  0  0  0  0  0  0  0999 V2000
   -2.8022    0.6677   -0.8848 F   0  0  0  0  0  0  0  0  0  0  0  0
   -2.2020    0.1228    0.2086 C   0  0  0  0  0  0  0  0  0  0  0  0
   -2.8114   -1.0870    0.3839 F   0  0  0  0  0  0  0  0  0  0  0  0
   -2.5859    0.8721    1.2781 F   0  0  0  0  0  0  0  0  0  0  0  0
   -0.7026    0.0131    0.0690 C   0  0  0  0  0  0  0  0  0  0  0  0
   -0.1071   -1.2636    0.1300 C   0  0  0  0  0  0  0  0  0  0  0  0
    1.2712   -1.4221    0.0072 C   0  0  0  0  0  0  0  0  0  0  0  0
    2.0802   -0.3065   -0.1791 C   0  0  0  0  0  0  0  0  0  0  0  0
    1.5145    0.9714   -0.2432 C   0  0  0  0  0  0  0  0  0  0  0  0
    2.7275    2.4158   -0.5008 Br  0  0  0  0  0  0  0  0  0  0  0  0
    0.1229    1.1400   -0.1199 C   0  0  0  0  0  0  0  0  0  0  0  0
   -0.6511    2.8845   -0.2072 Br  0  0  0  0  0  0  0  0  0  0  0  0
   -0.7238   -2.1513    0.2755 H   0  0  0  0  0  0  0  0  0  0  0  0
    1.7140   -2.4147    0.0566 H   0  0  0  0  0  0  0  0  0  0  0  0
    3.1557   -0.4423   -0.2738 H   0  0  0  0  0  0  0  0  0  0  0  0
  1  2  1  0
  2  3  1  0
  2  4  1  0
  2  5  1  0
  5  6  2  0
  6  7  1  0
  7  8  2  0
  8  9  1  0
  9 10  1  0
  9 11  2  0
 11 12  1  0
 11  5  1  0
  6 13  1  0
  7 14  1  0
  8 15  1  0
M  END
