
     RDKit          3D

 12 12  0  0  0  0  0  0  0  0999 V2000
   -2.7210    0.5667   -0.2079 F   0  0  0  0  0  0  0  0  0  0  0  0
   -1.4172    0.2763   -0.1064 C   0  0  0  0  0  0  0  0  0  0  0  0
   -0.4846    1.3064   -0.1552 C   0  0  0  0  0  0  0  0  0  0  0  0
    0.8784    1.0091   -0.0497 C   0  0  0  0  0  0  0  0  0  0  0  0
    2.0890    2.4703   -0.1252 Br  0  0  0  0  0  0  0  0  0  0  0  0
    1.2952   -0.3226    0.1041 C   0  0  0  0  0  0  0  0  0  0  0  0
    3.1203   -0.8249    0.2555 Br  0  0  0  0  0  0  0  0  0  0  0  0
    0.3467   -1.3499    0.1518 C   0  0  0  0  0  0  0  0  0  0  0  0
   -1.0048   -1.0413    0.0458 C   0  0  0  0  0  0  0  0  0  0  0  0
   -1.9086   -2.0291    0.0920 F   0  0  0  0  0  0  0  0  0  0  0  0
   -0.8347    2.3275   -0.2749 H   0  0  0  0  0  0  0  0  0  0  0  0
    0.6413   -2.3886    0.2701 H   0  0  0  0  0  0  0  0  0  0  0  0
  1  2  1  0
  2  3  2  0
  3  4  1  0
  4  5  1  0
  4  6  2  0
  6  7  1  0
  6  8  1  0
  8  9  2  0
  9 10  1  0
  9  2  1  0
  3 11  1  0
  8 12  1  0
M  END
