
     RDKit          3D

 24 24  0  0  0  0  0  0  0  0999 V2000
   -1.9884    1.2457    0.2045 C   0  0  0  0  0  0  0  0  0  0  0  0
   -0.8453    0.2633    0.0527 C   0  0  0  0  0  0  0  0  0  0  0  0
    0.4926    0.7374   -0.0136 C   0  0  0  0  0  0  0  0  0  0  0  0
    0.7646    2.2266   -0.0690 C   0  0  0  0  0  0  0  0  0  0  0  0
    1.5743   -0.1818    0.0017 C   0  0  0  0  0  0  0  0  0  0  0  0
    3.0004    0.3240    0.0451 C   0  0  0  0  0  0  0  0  0  0  0  0
    1.3004   -1.5681   -0.0597 C   0  0  0  0  0  0  0  0  0  0  0  0
    2.7674   -2.8072   -0.1581 Br  0  0  0  0  0  0  0  0  0  0  0  0
   -0.0301   -2.0362   -0.0810 C   0  0  0  0  0  0  0  0  0  0  0  0
   -0.3951   -3.9238   -0.1046 Br  0  0  0  0  0  0  0  0  0  0  0  0
   -1.1131   -1.1268   -0.0527 C   0  0  0  0  0  0  0  0  0  0  0  0
   -2.5422   -1.6240   -0.0958 C   0  0  0  0  0  0  0  0  0  0  0  0
   -2.8025    0.8240    0.8026 H   0  0  0  0  0  0  0  0  0  0  0  0
   -2.3694    1.5356   -0.7792 H   0  0  0  0  0  0  0  0  0  0  0  0
   -1.6846    2.1427    0.7529 H   0  0  0  0  0  0  0  0  0  0  0  0
    1.6484    2.4503   -0.6750 H   0  0  0  0  0  0  0  0  0  0  0  0
   -0.0473    2.7710   -0.5611 H   0  0  0  0  0  0  0  0  0  0  0  0
    0.9042    2.6222    0.9414 H   0  0  0  0  0  0  0  0  0  0  0  0
    3.4139    0.3702   -0.9669 H   0  0  0  0  0  0  0  0  0  0  0  0
    3.0741    1.3150    0.5025 H   0  0  0  0  0  0  0  0  0  0  0  0
    3.6365   -0.3061    0.6736 H   0  0  0  0  0  0  0  0  0  0  0  0
   -2.8687   -1.9171    0.9066 H   0  0  0  0  0  0  0  0  0  0  0  0
   -3.2314   -0.8688   -0.4851 H   0  0  0  0  0  0  0  0  0  0  0  0
   -2.6588   -2.4681   -0.7818 H   0  0  0  0  0  0  0  0  0  0  0  0
  1  2  1  0
  2  3  2  0
  3  4  1  0
  3  5  1  0
  5  6  1  0
  5  7  2  0
  7  8  1  0
  7  9  1  0
  9 10  1  0
  9 11  2  0
 11 12  1  0
 11  2  1  0
  1 13  1  0
  1 14  1  0
  1 15  1  0
  4 16  1  0
  4 17  1  0
  4 18  1  0
  6 19  1  0
  6 20  1  0
  6 21  1  0
 12 22  1  0
 12 23  1  0
 12 24  1  0
M  END
