
     RDKit          3D

 15 16  0  0  0  0  0  0  0  0999 V2000
    3.5420   -1.5700   -0.3760 Br  0  0  0  0  0  0  0  0  0  0  0  0
    1.9080   -0.6169   -0.1917 C   0  0  0  0  0  0  0  0  0  0  0  0
    0.7344   -1.3797   -0.1281 C   0  0  0  0  0  0  0  0  0  0  0  0
   -0.4616   -0.7085    0.0056 C   0  0  0  0  0  0  0  0  0  0  0  0
   -0.5199    0.6626    0.0757 C   0  0  0  0  0  0  0  0  0  0  0  0
    0.6146    1.4427    0.0163 C   0  0  0  0  0  0  0  0  0  0  0  0
    1.8481    0.7924   -0.1196 C   0  0  0  0  0  0  0  0  0  0  0  0
    3.3949    1.8940   -0.1989 Br  0  0  0  0  0  0  0  0  0  0  0  0
   -1.7930    1.1214    0.2059 O   0  0  0  0  0  0  0  0  0  0  0  0
   -2.5321   -0.1183    0.2098 C   0  0  0  0  0  0  0  0  0  0  0  0
   -1.6909   -1.2841    0.0828 O   0  0  0  0  0  0  0  0  0  0  0  0
    0.7511   -2.4629   -0.1810 H   0  0  0  0  0  0  0  0  0  0  0  0
    0.5393    2.5231    0.0740 H   0  0  0  0  0  0  0  0  0  0  0  0
   -3.2429   -0.1058   -0.6244 H   0  0  0  0  0  0  0  0  0  0  0  0
   -3.0920   -0.1901    1.1494 H   0  0  0  0  0  0  0  0  0  0  0  0
  1  2  1  0
  2  3  2  0
  3  4  1  0
  4  5  2  0
  5  6  1  0
  6  7  2  0
  7  8  1  0
  5  9  1  0
  9 10  1  0
 10 11  1  0
  7  2  1  0
 11  4  1  0
  3 12  1  0
  6 13  1  0
 10 14  1  0
 10 15  1  0
M  END
