
     RDKit          3D

 25 25  0  0  0  0  0  0  0  0999 V2000
   -1.7642    2.0461    0.7007 C   0  0  0  0  0  0  0  0  0  0  0  0
   -1.5397    1.3130   -0.5071 O   0  0  0  0  0  0  0  0  0  0  0  0
   -0.6908    0.2561   -0.2683 C   0  0  0  0  0  0  0  0  0  0  0  0
    0.6969    0.4501   -0.4258 C   0  0  0  0  0  0  0  0  0  0  0  0
    1.2199    1.7869   -0.8950 C   0  0  0  0  0  0  0  0  0  0  0  0
    1.5802   -0.6151   -0.1281 C   0  0  0  0  0  0  0  0  0  0  0  0
    3.0770   -0.4229   -0.2303 C   0  0  0  0  0  0  0  0  0  0  0  0
    1.0393   -1.8746    0.2348 C   0  0  0  0  0  0  0  0  0  0  0  0
    2.2389   -3.3372    0.5732 Br  0  0  0  0  0  0  0  0  0  0  0  0
   -0.3583   -2.0618    0.3265 C   0  0  0  0  0  0  0  0  0  0  0  0
   -1.0921   -3.7632    0.8289 Br  0  0  0  0  0  0  0  0  0  0  0  0
   -1.2411   -0.9959    0.0601 C   0  0  0  0  0  0  0  0  0  0  0  0
   -2.7379   -1.1749    0.1241 C   0  0  0  0  0  0  0  0  0  0  0  0
   -2.2300    1.4189    1.4685 H   0  0  0  0  0  0  0  0  0  0  0  0
   -0.8344    2.4813    1.0822 H   0  0  0  0  0  0  0  0  0  0  0  0
   -2.4516    2.8653    0.4700 H   0  0  0  0  0  0  0  0  0  0  0  0
    1.9441    1.6520   -1.7054 H   0  0  0  0  0  0  0  0  0  0  0  0
    1.6909    2.3190   -0.0626 H   0  0  0  0  0  0  0  0  0  0  0  0
    0.4333    2.4282   -1.3036 H   0  0  0  0  0  0  0  0  0  0  0  0
    3.3704    0.6273   -0.3026 H   0  0  0  0  0  0  0  0  0  0  0  0
    3.4626   -0.9394   -1.1151 H   0  0  0  0  0  0  0  0  0  0  0  0
    3.5801   -0.7968    0.6673 H   0  0  0  0  0  0  0  0  0  0  0  0
   -3.0539   -2.0107   -0.5087 H   0  0  0  0  0  0  0  0  0  0  0  0
   -3.0538   -1.3509    1.1574 H   0  0  0  0  0  0  0  0  0  0  0  0
   -3.2857   -0.3011   -0.2410 H   0  0  0  0  0  0  0  0  0  0  0  0
  1  2  1  0
  2  3  1  0
  3  4  2  0
  4  5  1  0
  4  6  1  0
  6  7  1  0
  6  8  2  0
  8  9  1  0
  8 10  1  0
 10 11  1  0
 10 12  2  0
 12 13  1  0
 12  3  1  0
  1 14  1  0
  1 15  1  0
  1 16  1  0
  5 17  1  0
  5 18  1  0
  5 19  1  0
  7 20  1  0
  7 21  1  0
  7 22  1  0
 13 23  1  0
 13 24  1  0
 13 25  1  0
M  END
