
     RDKit          3D

 12 12  0  0  0  0  0  0  0  0999 V2000
   -1.6950    2.2189    0.0680 F   0  0  0  0  0  0  0  0  0  0  0  0
   -0.8972    1.1426    0.0347 C   0  0  0  0  0  0  0  0  0  0  0  0
   -1.4475   -0.1268   -0.0234 C   0  0  0  0  0  0  0  0  0  0  0  0
   -2.7785   -0.2808   -0.0465 F   0  0  0  0  0  0  0  0  0  0  0  0
   -0.6186   -1.2417   -0.0579 C   0  0  0  0  0  0  0  0  0  0  0  0
   -1.1766   -2.4607   -0.1141 F   0  0  0  0  0  0  0  0  0  0  0  0
    0.7731   -1.0981   -0.0345 C   0  0  0  0  0  0  0  0  0  0  0  0
    1.8305   -2.6765   -0.0848 Br  0  0  0  0  0  0  0  0  0  0  0  0
    1.3301    0.1869    0.0244 C   0  0  0  0  0  0  0  0  0  0  0  0
    3.2052    0.4949    0.0605 Br  0  0  0  0  0  0  0  0  0  0  0  0
    0.4832    1.3004    0.0586 C   0  0  0  0  0  0  0  0  0  0  0  0
    0.9913    2.5409    0.1150 F   0  0  0  0  0  0  0  0  0  0  0  0
  1  2  1  0
  2  3  2  0
  3  4  1  0
  3  5  1  0
  5  6  1  0
  5  7  2  0
  7  8  1  0
  7  9  1  0
  9 10  1  0
  9 11  2  0
 11 12  1  0
 11  2  1  0
M  END
