
     RDKit          3D

 12 12  0  0  0  0  0  0  0  0999 V2000
   -1.3710    2.7648    0.0275 Cl  0  0  0  0  0  0  0  0  0  0  0  0
   -0.6103    1.2095    0.0119 C   0  0  0  0  0  0  0  0  0  0  0  0
   -1.4598    0.0966   -0.0123 C   0  0  0  0  0  0  0  0  0  0  0  0
   -0.9313   -1.1915   -0.0261 C   0  0  0  0  0  0  0  0  0  0  0  0
    0.4498   -1.3706   -0.0158 C   0  0  0  0  0  0  0  0  0  0  0  0
    1.3078   -0.2630    0.0084 C   0  0  0  0  0  0  0  0  0  0  0  0
    3.1731   -0.6422    0.0204 Br  0  0  0  0  0  0  0  0  0  0  0  0
    0.7846    1.0405    0.0225 C   0  0  0  0  0  0  0  0  0  0  0  0
    1.9389    2.5614    0.0556 Br  0  0  0  0  0  0  0  0  0  0  0  0
   -2.5396    0.2302   -0.0204 H   0  0  0  0  0  0  0  0  0  0  0  0
   -1.5940   -2.0537   -0.0449 H   0  0  0  0  0  0  0  0  0  0  0  0
    0.8518   -2.3820   -0.0268 H   0  0  0  0  0  0  0  0  0  0  0  0
  1  2  1  0
  2  3  2  0
  3  4  1  0
  4  5  2  0
  5  6  1  0
  6  7  1  0
  6  8  2  0
  8  9  1  0
  8  2  1  0
  3 10  1  0
  4 11  1  0
  5 12  1  0
M  END
