
     RDKit          3D

 15 16  0  0  0  0  0  0  0  0999 V2000
   -3.4950    1.7137   -0.0178 Br  0  0  0  0  0  0  0  0  0  0  0  0
   -1.8906    0.6947   -0.0245 C   0  0  0  0  0  0  0  0  0  0  0  0
   -0.6879    1.4078    0.0653 C   0  0  0  0  0  0  0  0  0  0  0  0
    0.4874    0.6883    0.0620 C   0  0  0  0  0  0  0  0  0  0  0  0
    0.4979   -0.6830   -0.0257 C   0  0  0  0  0  0  0  0  0  0  0  0
   -0.6662   -1.4150   -0.1153 C   0  0  0  0  0  0  0  0  0  0  0  0
   -1.8798   -0.7148   -0.1147 C   0  0  0  0  0  0  0  0  0  0  0  0
   -3.4684   -1.7507   -0.2394 Br  0  0  0  0  0  0  0  0  0  0  0  0
    1.7578   -1.1936   -0.0124 O   0  0  0  0  0  0  0  0  0  0  0  0
    2.5418    0.0135    0.0939 C   0  0  0  0  0  0  0  0  0  0  0  0
    1.7393    1.2122    0.1415 O   0  0  0  0  0  0  0  0  0  0  0  0
   -0.6668    2.4899    0.1355 H   0  0  0  0  0  0  0  0  0  0  0  0
   -0.6285   -2.4968   -0.1834 H   0  0  0  0  0  0  0  0  0  0  0  0
    3.1470   -0.0402    1.0061 H   0  0  0  0  0  0  0  0  0  0  0  0
    3.2121    0.0740   -0.7713 H   0  0  0  0  0  0  0  0  0  0  0  0
  1  2  1  0
  2  3  2  0
  3  4  1  0
  4  5  2  0
  5  6  1  0
  6  7  2  0
  7  8  1  0
  5  9  1  0
  9 10  1  0
 10 11  1  0
  7  2  1  0
 11  4  1  0
  3 12  1  0
  6 13  1  0
 10 14  1  0
 10 15  1  0
M  END
