
     RDKit          3D

 12 12  0  0  0  0  0  0  0  0999 V2000
   -3.1169   -0.5825   -0.0841 Cl  0  0  0  0  0  0  0  0  0  0  0  0
   -1.4258   -0.2736   -0.0388 C   0  0  0  0  0  0  0  0  0  0  0  0
   -0.5293   -1.3359   -0.0615 C   0  0  0  0  0  0  0  0  0  0  0  0
    0.8464   -1.0861   -0.0247 C   0  0  0  0  0  0  0  0  0  0  0  0
    1.8854   -2.4707   -0.0569 Cl  0  0  0  0  0  0  0  0  0  0  0  0
    1.3325    0.2317    0.0353 C   0  0  0  0  0  0  0  0  0  0  0  0
    3.2121    0.5633    0.0853 Br  0  0  0  0  0  0  0  0  0  0  0  0
    0.4113    1.2924    0.0575 C   0  0  0  0  0  0  0  0  0  0  0  0
    0.9267    3.1229    0.1377 Br  0  0  0  0  0  0  0  0  0  0  0  0
   -0.9648    1.0375    0.0205 C   0  0  0  0  0  0  0  0  0  0  0  0
   -0.8992   -2.3577   -0.1079 H   0  0  0  0  0  0  0  0  0  0  0  0
   -1.6784    1.8587    0.0377 H   0  0  0  0  0  0  0  0  0  0  0  0
  1  2  1  0
  2  3  2  0
  3  4  1  0
  4  5  1  0
  4  6  2  0
  6  7  1  0
  6  8  1  0
  8  9  1  0
  8 10  2  0
 10  2  1  0
  3 11  1  0
 10 12  1  0
M  END
