
     RDKit          3D

 12 12  0  0  0  0  0  0  0  0999 V2000
    1.1940   -2.4485    0.2307 F   0  0  0  0  0  0  0  0  0  0  0  0
    0.6077   -1.2463    0.1174 C   0  0  0  0  0  0  0  0  0  0  0  0
    1.3933   -0.1000    0.0042 C   0  0  0  0  0  0  0  0  0  0  0  0
    3.2807   -0.2355    0.0100 Br  0  0  0  0  0  0  0  0  0  0  0  0
    0.7802    1.1466   -0.1132 C   0  0  0  0  0  0  0  0  0  0  0  0
    1.5329    2.2528   -0.2224 F   0  0  0  0  0  0  0  0  0  0  0  0
   -0.6101    1.2511   -0.1179 C   0  0  0  0  0  0  0  0  0  0  0  0
   -1.4365    2.9458   -0.2776 Br  0  0  0  0  0  0  0  0  0  0  0  0
   -1.3879    0.0996   -0.0042 C   0  0  0  0  0  0  0  0  0  0  0  0
   -2.7269    0.1958   -0.0083 F   0  0  0  0  0  0  0  0  0  0  0  0
   -0.7832   -1.1511    0.1136 C   0  0  0  0  0  0  0  0  0  0  0  0
   -1.8442   -2.7103    0.2676 Br  0  0  0  0  0  0  0  0  0  0  0  0
  1  2  1  0
  2  3  2  0
  3  4  1  0
  3  5  1  0
  5  6  1  0
  5  7  2  0
  7  8  1  0
  7  9  1  0
  9 10  1  0
  9 11  2  0
 11 12  1  0
 11  2  1  0
M  END
