
     RDKit          3D

 42 45  0  0  0  0  0  0  0  0999 V2000
    1.8572   -4.6856   -1.1026 C   0  0  0  0  0  0  0  0  0  0  0  0
    1.5085   -3.3321   -1.0840 C   0  0  0  0  0  0  0  0  0  0  0  0
    0.7177   -2.7995   -0.0510 C   0  0  0  0  0  0  0  0  0  0  0  0
    0.2863   -3.6673    0.9662 C   0  0  0  0  0  0  0  0  0  0  0  0
    0.6371   -5.0184    0.9441 C   0  0  0  0  0  0  0  0  0  0  0  0
    1.4206   -5.5317   -0.0859 C   0  0  0  0  0  0  0  0  0  0  0  0
    0.0434   -6.1621    2.3282 Br  0  0  0  0  0  0  0  0  0  0  0  0
    0.3518   -1.3735   -0.0350 C   0  0  0  0  0  0  0  0  0  0  0  0
    1.3355   -0.3743   -0.1198 C   0  0  0  0  0  0  0  0  0  0  0  0
    1.0085    0.9919   -0.1097 C   0  0  0  0  0  0  0  0  0  0  0  0
   -0.3469    1.3471   -0.0115 C   0  0  0  0  0  0  0  0  0  0  0  0
   -1.3629    0.3809    0.0754 C   0  0  0  0  0  0  0  0  0  0  0  0
   -0.9912   -0.9735    0.0621 C   0  0  0  0  0  0  0  0  0  0  0  0
   -2.7772    0.7768    0.1771 C   0  0  0  0  0  0  0  0  0  0  0  0
   -3.3553    1.6407   -0.7681 C   0  0  0  0  0  0  0  0  0  0  0  0
   -4.6972    2.0119   -0.6646 C   0  0  0  0  0  0  0  0  0  0  0  0
   -5.4877    1.5336    0.3768 C   0  0  0  0  0  0  0  0  0  0  0  0
   -4.9310    0.6762    1.3228 C   0  0  0  0  0  0  0  0  0  0  0  0
   -3.5880    0.3017    1.2226 C   0  0  0  0  0  0  0  0  0  0  0  0
   -5.4485    3.1745   -1.9531 Br  0  0  0  0  0  0  0  0  0  0  0  0
    2.0570    2.0222   -0.1944 C   0  0  0  0  0  0  0  0  0  0  0  0
    3.1400    2.0269    0.7006 C   0  0  0  0  0  0  0  0  0  0  0  0
    4.1302    3.0072    0.6131 C   0  0  0  0  0  0  0  0  0  0  0  0
    4.0637    3.9983   -0.3624 C   0  0  0  0  0  0  0  0  0  0  0  0
    2.9970    4.0090   -1.2580 C   0  0  0  0  0  0  0  0  0  0  0  0
    2.0034    3.0296   -1.1736 C   0  0  0  0  0  0  0  0  0  0  0  0
    5.5752    2.9897    1.8329 Br  0  0  0  0  0  0  0  0  0  0  0  0
    2.4670   -5.0775   -1.9129 H   0  0  0  0  0  0  0  0  0  0  0  0
    1.8512   -2.6914   -1.8950 H   0  0  0  0  0  0  0  0  0  0  0  0
   -0.3172   -3.2820    1.7853 H   0  0  0  0  0  0  0  0  0  0  0  0
    1.6946   -6.5830   -0.1058 H   0  0  0  0  0  0  0  0  0  0  0  0
    2.3823   -0.6677   -0.1950 H   0  0  0  0  0  0  0  0  0  0  0  0
   -0.6162    2.4026    0.0219 H   0  0  0  0  0  0  0  0  0  0  0  0
   -1.7689   -1.7358    0.1049 H   0  0  0  0  0  0  0  0  0  0  0  0
   -2.7562    2.0153   -1.5952 H   0  0  0  0  0  0  0  0  0  0  0  0
   -6.5323    1.8215    0.4600 H   0  0  0  0  0  0  0  0  0  0  0  0
   -5.5395    0.2999    2.1414 H   0  0  0  0  0  0  0  0  0  0  0  0
   -3.1707   -0.3601    1.9797 H   0  0  0  0  0  0  0  0  0  0  0  0
    3.2029    1.2673    1.4770 H   0  0  0  0  0  0  0  0  0  0  0  0
    4.8333    4.7622   -0.4327 H   0  0  0  0  0  0  0  0  0  0  0  0
    2.9378    4.7775   -2.0248 H   0  0  0  0  0  0  0  0  0  0  0  0
    1.1846    3.0509   -1.8909 H   0  0  0  0  0  0  0  0  0  0  0  0
  1  2  2  0
  2  3  1  0
  3  4  2  0
  4  5  1  0
  5  6  2  0
  5  7  1  0
  3  8  1  0
  8  9  2  0
  9 10  1  0
 10 11  2  0
 11 12  1  0
 12 13  2  0
 12 14  1  0
 14 15  2  0
 15 16  1  0
 16 17  2  0
 17 18  1  0
 18 19  2  0
 16 20  1  0
 10 21  1  0
 21 22  2  0
 22 23  1  0
 23 24  2  0
 24 25  1  0
 25 26  2  0
 23 27  1  0
  6  1  1  0
 13  8  1  0
 19 14  1  0
 26 21  1  0
  1 28  1  0
  2 29  1  0
  4 30  1  0
  6 31  1  0
  9 32  1  0
 11 33  1  0
 13 34  1  0
 15 35  1  0
 17 36  1  0
 18 37  1  0
 19 38  1  0
 22 39  1  0
 24 40  1  0
 25 41  1  0
 26 42  1  0
M  END
