
     RDKit          3D

 21 21  0  0  0  0  0  0  0  0999 V2000
   -1.5544   -2.4811   -0.2673 C   0  0  0  0  0  0  0  0  0  0  0  0
   -0.7535   -1.2021   -0.1535 C   0  0  0  0  0  0  0  0  0  0  0  0
   -1.4007    0.0519   -0.0500 C   0  0  0  0  0  0  0  0  0  0  0  0
   -3.3208    0.1088    0.0624 Br  0  0  0  0  0  0  0  0  0  0  0  0
   -0.6692    1.2597    0.0412 C   0  0  0  0  0  0  0  0  0  0  0  0
   -1.3807    2.5921    0.1341 C   0  0  0  0  0  0  0  0  0  0  0  0
    0.7422    1.1851    0.1094 C   0  0  0  0  0  0  0  0  0  0  0  0
    1.7504    2.7904    0.4394 Br  0  0  0  0  0  0  0  0  0  0  0  0
    1.4261   -0.0495    0.0085 C   0  0  0  0  0  0  0  0  0  0  0  0
    2.9373   -0.1059    0.0667 C   0  0  0  0  0  0  0  0  0  0  0  0
    0.6593   -1.2352   -0.0821 C   0  0  0  0  0  0  0  0  0  0  0  0
    1.5542   -2.9373   -0.0137 Br  0  0  0  0  0  0  0  0  0  0  0  0
   -1.7829   -2.8715    0.7292 H   0  0  0  0  0  0  0  0  0  0  0  0
   -1.0304   -3.2488   -0.8431 H   0  0  0  0  0  0  0  0  0  0  0  0
   -2.4869   -2.3388   -0.8204 H   0  0  0  0  0  0  0  0  0  0  0  0
   -0.8026    3.4034   -0.3168 H   0  0  0  0  0  0  0  0  0  0  0  0
   -2.3177    2.6022   -0.4294 H   0  0  0  0  0  0  0  0  0  0  0  0
   -1.5874    2.8359    1.1808 H   0  0  0  0  0  0  0  0  0  0  0  0
    3.2704   -0.1994    1.1049 H   0  0  0  0  0  0  0  0  0  0  0  0
    3.4029    0.7757   -0.3824 H   0  0  0  0  0  0  0  0  0  0  0  0
    3.3443   -0.9355   -0.5179 H   0  0  0  0  0  0  0  0  0  0  0  0
  1  2  1  0
  2  3  2  0
  3  4  1  0
  3  5  1  0
  5  6  1  0
  5  7  2  0
  7  8  1  0
  7  9  1  0
  9 10  1  0
  9 11  2  0
 11 12  1  0
 11  2  1  0
  1 13  1  0
  1 14  1  0
  1 15  1  0
  6 16  1  0
  6 17  1  0
  6 18  1  0
 10 19  1  0
 10 20  1  0
 10 21  1  0
M  END
