
     RDKit          3D

 42 45  0  0  0  0  0  0  0  0999 V2000
   -3.6430    6.6585    0.2876 Br  0  0  0  0  0  0  0  0  0  0  0  0
   -2.7365    5.0015    0.2238 C   0  0  0  0  0  0  0  0  0  0  0  0
   -3.0400    4.0103    1.1528 C   0  0  0  0  0  0  0  0  0  0  0  0
   -2.3681    2.7849    1.1034 C   0  0  0  0  0  0  0  0  0  0  0  0
   -1.3866    2.5341    0.1289 C   0  0  0  0  0  0  0  0  0  0  0  0
   -0.6802    1.2432    0.0793 C   0  0  0  0  0  0  0  0  0  0  0  0
   -1.3906    0.0329    0.0191 C   0  0  0  0  0  0  0  0  0  0  0  0
   -0.7373   -1.2097   -0.0290 C   0  0  0  0  0  0  0  0  0  0  0  0
   -1.5029   -2.4658   -0.0917 C   0  0  0  0  0  0  0  0  0  0  0  0
   -2.4776   -2.6703   -1.0837 C   0  0  0  0  0  0  0  0  0  0  0  0
   -3.2056   -3.8626   -1.1456 C   0  0  0  0  0  0  0  0  0  0  0  0
   -2.9661   -4.8665   -0.2117 C   0  0  0  0  0  0  0  0  0  0  0  0
   -3.9487   -6.4789   -0.2923 Br  0  0  0  0  0  0  0  0  0  0  0  0
   -2.0068   -4.6896    0.7812 C   0  0  0  0  0  0  0  0  0  0  0  0
   -1.2806   -3.4959    0.8385 C   0  0  0  0  0  0  0  0  0  0  0  0
    0.6673   -1.2197   -0.0154 C   0  0  0  0  0  0  0  0  0  0  0  0
    1.4175   -0.0335    0.0442 C   0  0  0  0  0  0  0  0  0  0  0  0
    2.8894   -0.0684    0.0573 C   0  0  0  0  0  0  0  0  0  0  0  0
    3.6196    0.5832    1.0664 C   0  0  0  0  0  0  0  0  0  0  0  0
    5.0175    0.5512    1.0812 C   0  0  0  0  0  0  0  0  0  0  0  0
    5.7025   -0.1348    0.0824 C   0  0  0  0  0  0  0  0  0  0  0  0
    7.5918   -0.1795    0.0993 Br  0  0  0  0  0  0  0  0  0  0  0  0
    5.0038   -0.7882   -0.9287 C   0  0  0  0  0  0  0  0  0  0  0  0
    3.6059   -0.7541   -0.9388 C   0  0  0  0  0  0  0  0  0  0  0  0
    0.7233    1.1867    0.0908 C   0  0  0  0  0  0  0  0  0  0  0  0
   -1.0992    3.5522   -0.7967 C   0  0  0  0  0  0  0  0  0  0  0  0
   -1.7689    4.7790   -0.7518 C   0  0  0  0  0  0  0  0  0  0  0  0
   -3.7922    4.1782    1.9189 H   0  0  0  0  0  0  0  0  0  0  0  0
   -2.6098    2.0245    1.8440 H   0  0  0  0  0  0  0  0  0  0  0  0
   -2.4800    0.0586    0.0093 H   0  0  0  0  0  0  0  0  0  0  0  0
   -2.6696   -1.8997   -1.8283 H   0  0  0  0  0  0  0  0  0  0  0  0
   -3.9511   -3.9951   -1.9252 H   0  0  0  0  0  0  0  0  0  0  0  0
   -1.8165   -5.4680    1.5152 H   0  0  0  0  0  0  0  0  0  0  0  0
   -0.5418   -3.3694    1.6280 H   0  0  0  0  0  0  0  0  0  0  0  0
    1.1901   -2.1751   -0.0521 H   0  0  0  0  0  0  0  0  0  0  0  0
    3.0991    1.1150    1.8610 H   0  0  0  0  0  0  0  0  0  0  0  0
    5.5565    1.0611    1.8752 H   0  0  0  0  0  0  0  0  0  0  0  0
    5.5322   -1.3234   -1.7131 H   0  0  0  0  0  0  0  0  0  0  0  0
    3.0751   -1.2611   -1.7428 H   0  0  0  0  0  0  0  0  0  0  0  0
    1.2899    2.1164    0.1373 H   0  0  0  0  0  0  0  0  0  0  0  0
   -0.3531    3.3906   -1.5728 H   0  0  0  0  0  0  0  0  0  0  0  0
   -1.5289    5.5473   -1.4819 H   0  0  0  0  0  0  0  0  0  0  0  0
  1  2  1  0
  2  3  2  0
  3  4  1  0
  4  5  2  0
  5  6  1  0
  6  7  2  0
  7  8  1  0
  8  9  1  0
  9 10  2  0
 10 11  1  0
 11 12  2  0
 12 13  1  0
 12 14  1  0
 14 15  2  0
  8 16  2  0
 16 17  1  0
 17 18  1  0
 18 19  2  0
 19 20  1  0
 20 21  2  0
 21 22  1  0
 21 23  1  0
 23 24  2  0
 17 25  2  0
  5 26  1  0
 26 27  2  0
 27  2  1  0
 25  6  1  0
 15  9  1  0
 24 18  1  0
  3 28  1  0
  4 29  1  0
  7 30  1  0
 10 31  1  0
 11 32  1  0
 14 33  1  0
 15 34  1  0
 16 35  1  0
 19 36  1  0
 20 37  1  0
 23 38  1  0
 24 39  1  0
 25 40  1  0
 26 41  1  0
 27 42  1  0
M  END
