
     RDKit          3D

 42 45  0  0  0  0  0  0  0  0999 V2000
   -1.9282    6.8746    2.5854 Br  0  0  0  0  0  0  0  0  0  0  0  0
   -1.4483    5.1636    1.9420 C   0  0  0  0  0  0  0  0  0  0  0  0
   -0.4704    5.0433    0.9587 C   0  0  0  0  0  0  0  0  0  0  0  0
   -0.1167    3.7762    0.4845 C   0  0  0  0  0  0  0  0  0  0  0  0
   -0.7339    2.6164    0.9840 C   0  0  0  0  0  0  0  0  0  0  0  0
   -0.3601    1.2838    0.4828 C   0  0  0  0  0  0  0  0  0  0  0  0
   -1.3308    0.4053   -0.0262 C   0  0  0  0  0  0  0  0  0  0  0  0
   -0.9962   -0.8703   -0.5099 C   0  0  0  0  0  0  0  0  0  0  0  0
   -2.0297   -1.7724   -1.0441 C   0  0  0  0  0  0  0  0  0  0  0  0
   -3.1649   -2.1025   -0.2839 C   0  0  0  0  0  0  0  0  0  0  0  0
   -4.1475   -2.9599   -0.7888 C   0  0  0  0  0  0  0  0  0  0  0  0
   -4.0047   -3.4974   -2.0648 C   0  0  0  0  0  0  0  0  0  0  0  0
   -5.3312   -4.6561   -2.7502 Br  0  0  0  0  0  0  0  0  0  0  0  0
   -2.8905   -3.1863   -2.8388 C   0  0  0  0  0  0  0  0  0  0  0  0
   -1.9101   -2.3292   -2.3292 C   0  0  0  0  0  0  0  0  0  0  0  0
    0.3531   -1.2590   -0.4735 C   0  0  0  0  0  0  0  0  0  0  0  0
    1.3561   -0.4126    0.0275 C   0  0  0  0  0  0  0  0  0  0  0  0
    2.7634   -0.8434    0.0604 C   0  0  0  0  0  0  0  0  0  0  0  0
    3.7726   -0.0639   -0.5309 C   0  0  0  0  0  0  0  0  0  0  0  0
    5.1099   -0.4714   -0.5018 C   0  0  0  0  0  0  0  0  0  0  0  0
    5.4533   -1.6672    0.1225 C   0  0  0  0  0  0  0  0  0  0  0  0
    7.2599   -2.2205    0.1640 Br  0  0  0  0  0  0  0  0  0  0  0  0
    4.4735   -2.4577    0.7163 C   0  0  0  0  0  0  0  0  0  0  0  0
    3.1374   -2.0465    0.6837 C   0  0  0  0  0  0  0  0  0  0  0  0
    0.9774    0.8548    0.5001 C   0  0  0  0  0  0  0  0  0  0  0  0
   -1.7183    2.7661    1.9759 C   0  0  0  0  0  0  0  0  0  0  0  0
   -2.0747    4.0309    2.4540 C   0  0  0  0  0  0  0  0  0  0  0  0
    0.0204    5.9236    0.5525 H   0  0  0  0  0  0  0  0  0  0  0  0
    0.6418    3.7001   -0.2924 H   0  0  0  0  0  0  0  0  0  0  0  0
   -2.3696    0.7320   -0.0689 H   0  0  0  0  0  0  0  0  0  0  0  0
   -3.2865   -1.6995    0.7199 H   0  0  0  0  0  0  0  0  0  0  0  0
   -5.0136   -3.2008   -0.1782 H   0  0  0  0  0  0  0  0  0  0  0  0
   -2.7741   -3.5997   -3.8370 H   0  0  0  0  0  0  0  0  0  0  0  0
   -1.0504   -2.0871   -2.9518 H   0  0  0  0  0  0  0  0  0  0  0  0
    0.6298   -2.2455   -0.8445 H   0  0  0  0  0  0  0  0  0  0  0  0
    3.5196    0.8684   -1.0326 H   0  0  0  0  0  0  0  0  0  0  0  0
    5.8695    0.1492   -0.9696 H   0  0  0  0  0  0  0  0  0  0  0  0
    4.7348   -3.3909    1.2081 H   0  0  0  0  0  0  0  0  0  0  0  0
    2.3850   -2.6707    1.1625 H   0  0  0  0  0  0  0  0  0  0  0  0
    1.7394    1.5149    0.9139 H   0  0  0  0  0  0  0  0  0  0  0  0
   -2.2096    1.8897    2.3947 H   0  0  0  0  0  0  0  0  0  0  0  0
   -2.8368    4.1176    3.2238 H   0  0  0  0  0  0  0  0  0  0  0  0
  1  2  1  0
  2  3  2  0
  3  4  1  0
  4  5  2  0
  5  6  1  0
  6  7  2  0
  7  8  1  0
  8  9  1  0
  9 10  2  0
 10 11  1  0
 11 12  2  0
 12 13  1  0
 12 14  1  0
 14 15  2  0
  8 16  2  0
 16 17  1  0
 17 18  1  0
 18 19  2  0
 19 20  1  0
 20 21  2  0
 21 22  1  0
 21 23  1  0
 23 24  2  0
 17 25  2  0
  5 26  1  0
 26 27  2  0
 27  2  1  0
 25  6  1  0
 15  9  1  0
 24 18  1  0
  3 28  1  0
  4 29  1  0
  7 30  1  0
 10 31  1  0
 11 32  1  0
 14 33  1  0
 15 34  1  0
 16 35  1  0
 19 36  1  0
 20 37  1  0
 23 38  1  0
 24 39  1  0
 25 40  1  0
 26 41  1  0
 27 42  1  0
M  END
