
     RDKit          3D

 21 21  0  0  0  0  0  0  0  0999 V2000
   -1.9091   -2.1956   -0.4220 C   0  0  0  0  0  0  0  0  0  0  0  0
   -0.9226   -1.0644   -0.2283 C   0  0  0  0  0  0  0  0  0  0  0  0
   -1.3573    0.2820   -0.2127 C   0  0  0  0  0  0  0  0  0  0  0  0
   -3.2408    0.6598   -0.3246 Br  0  0  0  0  0  0  0  0  0  0  0  0
   -0.4483    1.3539   -0.0489 C   0  0  0  0  0  0  0  0  0  0  0  0
   -0.9316    2.7880   -0.0522 C   0  0  0  0  0  0  0  0  0  0  0  0
    0.9136    1.0482    0.1833 C   0  0  0  0  0  0  0  0  0  0  0  0
    2.1336    2.4730    0.6127 Br  0  0  0  0  0  0  0  0  0  0  0  0
    1.3873   -0.2851    0.1745 C   0  0  0  0  0  0  0  0  0  0  0  0
    2.8512   -0.5895    0.4082 C   0  0  0  0  0  0  0  0  0  0  0  0
    0.4473   -1.3293    0.0069 C   0  0  0  0  0  0  0  0  0  0  0  0
    1.0299   -3.1535    0.1952 Br  0  0  0  0  0  0  0  0  0  0  0  0
   -2.7359   -1.9168   -1.0809 H   0  0  0  0  0  0  0  0  0  0  0  0
   -2.3109   -2.5138    0.5450 H   0  0  0  0  0  0  0  0  0  0  0  0
   -1.4600   -3.0560   -0.9256 H   0  0  0  0  0  0  0  0  0  0  0  0
   -1.2111    3.0928    0.9611 H   0  0  0  0  0  0  0  0  0  0  0  0
   -0.1782    3.4787   -0.4407 H   0  0  0  0  0  0  0  0  0  0  0  0
   -1.7839    2.9370   -0.7207 H   0  0  0  0  0  0  0  0  0  0  0  0
    3.1762   -1.4918   -0.1170 H   0  0  0  0  0  0  0  0  0  0  0  0
    3.0445   -0.7069    1.4790 H   0  0  0  0  0  0  0  0  0  0  0  0
    3.5060    0.1892    0.0077 H   0  0  0  0  0  0  0  0  0  0  0  0
  1  2  1  0
  2  3  2  0
  3  4  1  0
  3  5  1  0
  5  6  1  0
  5  7  2  0
  7  8  1  0
  7  9  1  0
  9 10  1  0
  9 11  2  0
 11 12  1  0
 11  2  1  0
  1 13  1  0
  1 14  1  0
  1 15  1  0
  6 16  1  0
  6 17  1  0
  6 18  1  0
 10 19  1  0
 10 20  1  0
 10 21  1  0
M  END
