
     RDKit          3D

 15 16  0  0  0  0  0  0  0  0999 V2000
    1.4613    3.5104    0.0110 Br  0  0  0  0  0  0  0  0  0  0  0  0
    1.3773    1.6283    0.0102 C   0  0  0  0  0  0  0  0  0  0  0  0
    2.5002    0.8449    0.0181 N   0  0  0  0  0  0  0  0  0  0  0  0
    2.0555   -0.3942    0.0147 C   0  0  0  0  0  0  0  0  0  0  0  0
    3.2404   -1.8980    0.0230 Br  0  0  0  0  0  0  0  0  0  0  0  0
    0.6773   -0.4509    0.0048 N   0  0  0  0  0  0  0  0  0  0  0  0
   -0.1939   -1.5427   -0.0016 C   0  0  0  0  0  0  0  0  0  0  0  0
   -1.5204   -1.3268   -0.0111 C   0  0  0  0  0  0  0  0  0  0  0  0
   -2.0126    0.0419   -0.0145 C   0  0  0  0  0  0  0  0  0  0  0  0
   -1.1731    1.0956   -0.0083 C   0  0  0  0  0  0  0  0  0  0  0  0
    0.2319    0.8666    0.0018 C   0  0  0  0  0  0  0  0  0  0  0  0
    0.2358   -2.5363    0.0013 H   0  0  0  0  0  0  0  0  0  0  0  0
   -2.2357   -2.1424   -0.0164 H   0  0  0  0  0  0  0  0  0  0  0  0
   -3.0886    0.1918   -0.0222 H   0  0  0  0  0  0  0  0  0  0  0  0
   -1.5554    2.1120   -0.0109 H   0  0  0  0  0  0  0  0  0  0  0  0
  1  2  1  0
  2  3  1  0
  3  4  2  0
  4  5  1  0
  4  6  1  0
  6  7  1  0
  7  8  2  0
  8  9  1  0
  9 10  2  0
 10 11  1  0
 11  2  2  0
 11  6  1  0
  7 12  1  0
  8 13  1  0
  9 14  1  0
 10 15  1  0
M  END
