
     RDKit          3D

 14 14  0  0  0  0  0  0  0  0999 V2000
   -2.8874   -0.6764    0.9585 O   0  0  0  0  0  0  0  0  0  0  0  0
   -2.3556   -0.0496    0.0345 N   0  0  0  0  0  4  0  0  0  0  0  0
   -2.9386    0.5247   -0.8925 O   0  0  0  0  0  1  0  0  0  0  0  0
   -0.9129   -0.0299    0.0101 C   0  0  0  0  0  0  0  0  0  0  0  0
   -0.2610   -1.1744   -0.4716 C   0  0  0  0  0  0  0  0  0  0  0  0
    1.1330   -1.1923   -0.5167 C   0  0  0  0  0  0  0  0  0  0  0  0
    1.8517   -0.0760   -0.0817 C   0  0  0  0  0  0  0  0  0  0  0  0
    3.7421   -0.1157   -0.1490 Br  0  0  0  0  0  0  0  0  0  0  0  0
    1.1835    1.0550    0.3996 C   0  0  0  0  0  0  0  0  0  0  0  0
    1.8944    2.1148    0.8177 F   0  0  0  0  0  0  0  0  0  0  0  0
   -0.2112    1.0916    0.4525 C   0  0  0  0  0  0  0  0  0  0  0  0
   -1.0603    2.6443    1.1366 Br  0  0  0  0  0  0  0  0  0  0  0  0
   -0.8273   -2.0412   -0.8082 H   0  0  0  0  0  0  0  0  0  0  0  0
    1.6495   -2.0748   -0.8896 H   0  0  0  0  0  0  0  0  0  0  0  0
  1  2  2  0
  2  3  1  0
  2  4  1  0
  4  5  2  0
  5  6  1  0
  6  7  2  0
  7  8  1  0
  7  9  1  0
  9 10  1  0
  9 11  2  0
 11 12  1  0
 11  4  1  0
  5 13  1  0
  6 14  1  0
M  CHG  2   2   1   3  -1
M  END
