
     RDKit          3D

 26 26  0  0  0  0  0  0  0  0999 V2000
    3.8785    1.4884    1.6346 C   0  0  0  0  0  0  0  0  0  0  0  0
    2.5672    1.2144    0.9407 C   0  0  0  0  0  0  0  0  0  0  0  0
    1.9018    2.1317    0.4775 O   0  0  0  0  0  0  0  0  0  0  0  0
    2.2820   -0.1348    0.8720 N   0  0  0  0  0  0  0  0  0  0  0  0
    1.1361   -0.7632    0.3266 C   0  0  0  0  0  0  0  0  0  0  0  0
    0.0010   -0.0586   -0.1054 C   0  0  0  0  0  0  0  0  0  0  0  0
   -1.1108   -0.7293   -0.6399 C   0  0  0  0  0  0  0  0  0  0  0  0
   -2.2785   -0.0660   -1.0890 N   0  0  0  0  0  0  0  0  0  0  0  0
   -2.6094    1.2680   -0.9578 C   0  0  0  0  0  0  0  0  0  0  0  0
   -3.9308    1.5974   -1.6067 C   0  0  0  0  0  0  0  0  0  0  0  0
   -1.9741    2.1285   -0.3621 O   0  0  0  0  0  0  0  0  0  0  0  0
   -1.0639   -2.1312   -0.7489 C   0  0  0  0  0  0  0  0  0  0  0  0
   -2.5183   -3.1208   -1.4784 Br  0  0  0  0  0  0  0  0  0  0  0  0
    0.0484   -2.8496   -0.3134 C   0  0  0  0  0  0  0  0  0  0  0  0
    1.1369   -2.1665    0.2265 C   0  0  0  0  0  0  0  0  0  0  0  0
    2.6256   -3.2037    0.8050 Br  0  0  0  0  0  0  0  0  0  0  0  0
    4.0717    0.7509    2.4190 H   0  0  0  0  0  0  0  0  0  0  0  0
    3.8406    2.4765    2.1022 H   0  0  0  0  0  0  0  0  0  0  0  0
    4.6877    1.4621    0.9003 H   0  0  0  0  0  0  0  0  0  0  0  0
    3.0055   -0.7704    1.1911 H   0  0  0  0  0  0  0  0  0  0  0  0
   -0.0174    1.0226   -0.0248 H   0  0  0  0  0  0  0  0  0  0  0  0
   -2.9810   -0.6713   -1.5006 H   0  0  0  0  0  0  0  0  0  0  0  0
   -3.9275    2.6446   -1.9226 H   0  0  0  0  0  0  0  0  0  0  0  0
   -4.7369    1.4353   -0.8864 H   0  0  0  0  0  0  0  0  0  0  0  0
   -4.1011    0.9783   -2.4922 H   0  0  0  0  0  0  0  0  0  0  0  0
    0.0667   -3.9334   -0.3942 H   0  0  0  0  0  0  0  0  0  0  0  0
  1  2  1  0
  2  3  2  0
  2  4  1  0
  4  5  1  0
  5  6  2  0
  6  7  1  0
  7  8  1  0
  8  9  1  0
  9 10  1  0
  9 11  2  0
  7 12  2  0
 12 13  1  0
 12 14  1  0
 14 15  2  0
 15 16  1  0
 15  5  1  0
  1 17  1  0
  1 18  1  0
  1 19  1  0
  4 20  1  0
  6 21  1  0
  8 22  1  0
 10 23  1  0
 10 24  1  0
 10 25  1  0
 14 26  1  0
M  END
