
     RDKit          3D

 12 12  0  0  0  0  0  0  0  0999 V2000
   -2.5421   -2.0209    0.0527 Br  0  0  0  0  0  0  0  0  0  0  0  0
   -1.0811   -0.8208    0.0217 C   0  0  0  0  0  0  0  0  0  0  0  0
   -1.3181    0.5540   -0.0029 C   0  0  0  0  0  0  0  0  0  0  0  0
   -0.2417    1.4421   -0.0258 C   0  0  0  0  0  0  0  0  0  0  0  0
    1.0656    0.9531   -0.0241 C   0  0  0  0  0  0  0  0  0  0  0  0
    1.2897   -0.4239    0.0006 C   0  0  0  0  0  0  0  0  0  0  0  0
    3.0622   -1.0826    0.0028 Br  0  0  0  0  0  0  0  0  0  0  0  0
    0.2209   -1.3182    0.0236 C   0  0  0  0  0  0  0  0  0  0  0  0
   -2.3338    0.9418   -0.0043 H   0  0  0  0  0  0  0  0  0  0  0  0
   -0.4214    2.5143   -0.0449 H   0  0  0  0  0  0  0  0  0  0  0  0
    1.8993    1.6505   -0.0420 H   0  0  0  0  0  0  0  0  0  0  0  0
    0.4004   -2.3894    0.0427 H   0  0  0  0  0  0  0  0  0  0  0  0
  1  2  1  0
  2  3  2  0
  3  4  1  0
  4  5  2  0
  5  6  1  0
  6  7  1  0
  6  8  2  0
  8  2  1  0
  3  9  1  0
  4 10  1  0
  5 11  1  0
  8 12  1  0
M  END
