
     RDKit          3D

 24 24  0  0  0  0  0  0  0  0999 V2000
   -1.6141    1.6355   -0.1076 C   0  0  0  0  0  0  0  0  0  0  0  0
   -1.1538    0.1604   -0.1335 C   0  0  0  0  0  0  0  0  0  0  0  0
   -1.8467   -0.5124   -1.3381 C   0  0  0  0  0  0  0  0  0  0  0  0
   -1.6530   -0.4959    1.1719 C   0  0  0  0  0  0  0  0  0  0  0  0
    0.3710   -0.0143   -0.2499 C   0  0  0  0  0  0  0  0  0  0  0  0
    1.2573    1.0748   -0.3255 C   0  0  0  0  0  0  0  0  0  0  0  0
    2.6387    0.8751   -0.4307 C   0  0  0  0  0  0  0  0  0  0  0  0
    3.7927    2.3717   -0.5296 Br  0  0  0  0  0  0  0  0  0  0  0  0
    3.1758   -0.4065   -0.4637 C   0  0  0  0  0  0  0  0  0  0  0  0
    2.3152   -1.4944   -0.3902 C   0  0  0  0  0  0  0  0  0  0  0  0
    3.0196   -3.2492   -0.4330 Br  0  0  0  0  0  0  0  0  0  0  0  0
    0.9339   -1.3068   -0.2849 C   0  0  0  0  0  0  0  0  0  0  0  0
   -1.3263    2.1642   -1.0239 H   0  0  0  0  0  0  0  0  0  0  0  0
   -2.7052    1.7075   -0.0239 H   0  0  0  0  0  0  0  0  0  0  0  0
   -1.1897    2.1759    0.7466 H   0  0  0  0  0  0  0  0  0  0  0  0
   -2.9332   -0.3722   -1.2981 H   0  0  0  0  0  0  0  0  0  0  0  0
   -1.4903   -0.0894   -2.2848 H   0  0  0  0  0  0  0  0  0  0  0  0
   -1.6646   -1.5922   -1.3714 H   0  0  0  0  0  0  0  0  0  0  0  0
   -1.4670   -1.5753    1.1910 H   0  0  0  0  0  0  0  0  0  0  0  0
   -1.1561   -0.0609    2.0471 H   0  0  0  0  0  0  0  0  0  0  0  0
   -2.7330   -0.3552    1.2972 H   0  0  0  0  0  0  0  0  0  0  0  0
    0.8897    2.0971   -0.3039 H   0  0  0  0  0  0  0  0  0  0  0  0
    4.2484   -0.5545   -0.5455 H   0  0  0  0  0  0  0  0  0  0  0  0
    0.2908   -2.1829   -0.2295 H   0  0  0  0  0  0  0  0  0  0  0  0
  1  2  1  0
  2  3  1  0
  2  4  1  0
  2  5  1  0
  5  6  2  0
  6  7  1  0
  7  8  1  0
  7  9  2  0
  9 10  1  0
 10 11  1  0
 10 12  2  0
 12  5  1  0
  1 13  1  0
  1 14  1  0
  1 15  1  0
  3 16  1  0
  3 17  1  0
  3 18  1  0
  4 19  1  0
  4 20  1  0
  4 21  1  0
  6 22  1  0
  9 23  1  0
 12 24  1  0
M  END
