
     RDKit          3D

 26 26  0  0  0  0  0  0  0  0999 V2000
   -4.3133    1.0550   -0.7027 C   0  0  0  0  0  0  0  0  0  0  0  0
   -2.8181    0.8643   -0.6386 C   0  0  0  0  0  0  0  0  0  0  0  0
   -2.0621    1.6744   -1.1591 O   0  0  0  0  0  0  0  0  0  0  0  0
   -2.4655   -0.3040    0.0071 N   0  0  0  0  0  0  0  0  0  0  0  0
   -1.1670   -0.7972    0.2830 C   0  0  0  0  0  0  0  0  0  0  0  0
    0.0040   -0.0545    0.0626 C   0  0  0  0  0  0  0  0  0  0  0  0
    1.2693   -0.5896    0.3527 C   0  0  0  0  0  0  0  0  0  0  0  0
    2.4793    0.1175    0.1491 N   0  0  0  0  0  0  0  0  0  0  0  0
    2.6480    1.4423   -0.2010 C   0  0  0  0  0  0  0  0  0  0  0  0
    4.1017    1.8123   -0.3609 C   0  0  0  0  0  0  0  0  0  0  0  0
    1.7701    2.2842   -0.3404 O   0  0  0  0  0  0  0  0  0  0  0  0
    1.3469   -1.8994    0.8604 C   0  0  0  0  0  0  0  0  0  0  0  0
    3.0215   -2.7115    1.2644 Br  0  0  0  0  0  0  0  0  0  0  0  0
    0.1953   -2.6478    1.0985 C   0  0  0  0  0  0  0  0  0  0  0  0
   -1.0523   -2.0940    0.8164 C   0  0  0  0  0  0  0  0  0  0  0  0
   -2.5879   -3.1652    1.1646 Br  0  0  0  0  0  0  0  0  0  0  0  0
   -4.8028    0.6381    0.1823 H   0  0  0  0  0  0  0  0  0  0  0  0
   -4.7014    0.5660   -1.5999 H   0  0  0  0  0  0  0  0  0  0  0  0
   -4.5401    2.1243   -0.7416 H   0  0  0  0  0  0  0  0  0  0  0  0
   -3.2224   -0.9286    0.2648 H   0  0  0  0  0  0  0  0  0  0  0  0
   -0.0701    0.9502   -0.3387 H   0  0  0  0  0  0  0  0  0  0  0  0
    3.3212   -0.4110    0.3520 H   0  0  0  0  0  0  0  0  0  0  0  0
    4.6842    0.9686   -0.7424 H   0  0  0  0  0  0  0  0  0  0  0  0
    4.1891    2.6341   -1.0774 H   0  0  0  0  0  0  0  0  0  0  0  0
    4.5028    2.1262    0.6063 H   0  0  0  0  0  0  0  0  0  0  0  0
    0.2696   -3.6548    1.5007 H   0  0  0  0  0  0  0  0  0  0  0  0
  1  2  1  0
  2  3  2  0
  2  4  1  0
  4  5  1  0
  5  6  2  0
  6  7  1  0
  7  8  1  0
  8  9  1  0
  9 10  1  0
  9 11  2  0
  7 12  2  0
 12 13  1  0
 12 14  1  0
 14 15  2  0
 15 16  1  0
 15  5  1  0
  1 17  1  0
  1 18  1  0
  1 19  1  0
  4 20  1  0
  6 21  1  0
  8 22  1  0
 10 23  1  0
 10 24  1  0
 10 25  1  0
 14 26  1  0
M  END
