
     RDKit          3D

 16 16  0  0  0  0  0  0  0  0999 V2000
    3.8918   -0.7838    0.0881 F   0  0  0  0  0  0  0  0  0  0  0  0
    2.6342   -0.6729   -0.3922 C   0  0  0  0  0  0  0  0  0  0  0  0
    2.6584    0.1682   -1.4477 F   0  0  0  0  0  0  0  0  0  0  0  0
    2.2282   -1.8947   -0.7977 F   0  0  0  0  0  0  0  0  0  0  0  0
    1.7957   -0.1738    0.6368 O   0  0  0  0  0  0  0  0  0  0  0  0
    0.4724    0.0127    0.3529 C   0  0  0  0  0  0  0  0  0  0  0  0
   -0.2816    0.5072    1.4232 C   0  0  0  0  0  0  0  0  0  0  0  0
   -1.6481    0.7451    1.2740 C   0  0  0  0  0  0  0  0  0  0  0  0
   -2.6474    1.4132    2.7331 Br  0  0  0  0  0  0  0  0  0  0  0  0
   -2.2814    0.4950    0.0612 C   0  0  0  0  0  0  0  0  0  0  0  0
   -1.5299    0.0031   -1.0027 C   0  0  0  0  0  0  0  0  0  0  0  0
   -2.3776   -0.3420   -2.6590 Br  0  0  0  0  0  0  0  0  0  0  0  0
   -0.1592   -0.2398   -0.8663 C   0  0  0  0  0  0  0  0  0  0  0  0
    0.2059    0.7056    2.3755 H   0  0  0  0  0  0  0  0  0  0  0  0
   -3.3457    0.6807   -0.0540 H   0  0  0  0  0  0  0  0  0  0  0  0
    0.3841   -0.6237   -1.7251 H   0  0  0  0  0  0  0  0  0  0  0  0
  1  2  1  0
  2  3  1  0
  2  4  1  0
  2  5  1  0
  5  6  1  0
  6  7  2  0
  7  8  1  0
  8  9  1  0
  8 10  2  0
 10 11  1  0
 11 12  1  0
 11 13  2  0
 13  6  1  0
  7 14  1  0
 10 15  1  0
 13 16  1  0
M  END
