
     RDKit          3D

 15 16  0  0  0  0  0  0  0  0999 V2000
    2.1385    2.4376    0.0934 O   0  0  0  0  0  0  0  0  0  0  0  0
    1.8064    1.2719    0.1156 C   0  0  0  0  0  0  0  0  0  0  0  0
    2.6358    0.2054    0.2454 O   0  0  0  0  0  0  0  0  0  0  0  0
    1.9705   -0.9776    0.2362 C   0  0  0  0  0  0  0  0  0  0  0  0
    2.4679   -2.0787    0.3355 O   0  0  0  0  0  0  0  0  0  0  0  0
    0.5674   -0.6444    0.0849 C   0  0  0  0  0  0  0  0  0  0  0  0
   -0.5534   -1.4560    0.0142 C   0  0  0  0  0  0  0  0  0  0  0  0
   -0.4802   -3.3397    0.1090 Br  0  0  0  0  0  0  0  0  0  0  0  0
   -1.8019   -0.8438   -0.1351 C   0  0  0  0  0  0  0  0  0  0  0  0
   -1.9039    0.5550   -0.2100 C   0  0  0  0  0  0  0  0  0  0  0  0
   -0.7583    1.3538   -0.1364 C   0  0  0  0  0  0  0  0  0  0  0  0
   -0.9592    3.2275   -0.2431 Br  0  0  0  0  0  0  0  0  0  0  0  0
    0.4675    0.7251    0.0115 C   0  0  0  0  0  0  0  0  0  0  0  0
   -2.7091   -1.4439   -0.1949 H   0  0  0  0  0  0  0  0  0  0  0  0
   -2.8879    1.0078   -0.3263 H   0  0  0  0  0  0  0  0  0  0  0  0
  1  2  2  0
  2  3  1  0
  3  4  1  0
  4  5  2  0
  4  6  1  0
  6  7  2  0
  7  8  1  0
  7  9  1  0
  9 10  2  0
 10 11  1  0
 11 12  1  0
 11 13  2  0
 13  2  1  0
 13  6  1  0
  9 14  1  0
 10 15  1  0
M  END
