
     RDKit          3D

 12 12  0  0  0  0  0  0  0  0999 V2000
   -0.8031   -2.6584   -0.1402 F   0  0  0  0  0  0  0  0  0  0  0  0
   -0.4164   -1.3784   -0.0727 C   0  0  0  0  0  0  0  0  0  0  0  0
    0.9414   -1.0760   -0.0817 C   0  0  0  0  0  0  0  0  0  0  0  0
    1.3396    0.2581   -0.0113 C   0  0  0  0  0  0  0  0  0  0  0  0
    3.1848    0.6737   -0.0233 Br  0  0  0  0  0  0  0  0  0  0  0  0
    0.3844    1.2725    0.0671 C   0  0  0  0  0  0  0  0  0  0  0  0
    0.7721    2.5560    0.1348 F   0  0  0  0  0  0  0  0  0  0  0  0
   -0.9740    0.9524    0.0751 C   0  0  0  0  0  0  0  0  0  0  0  0
   -2.2822    2.3144    0.1809 Br  0  0  0  0  0  0  0  0  0  0  0  0
   -1.3810   -0.3790    0.0050 C   0  0  0  0  0  0  0  0  0  0  0  0
    1.6658   -1.8824   -0.1434 H   0  0  0  0  0  0  0  0  0  0  0  0
   -2.4316   -0.6527    0.0097 H   0  0  0  0  0  0  0  0  0  0  0  0
  1  2  1  0
  2  3  2  0
  3  4  1  0
  4  5  1  0
  4  6  2  0
  6  7  1  0
  6  8  1  0
  8  9  1  0
  8 10  2  0
 10  2  1  0
  3 11  1  0
 10 12  1  0
M  END
