
     RDKit          3D

 18 18  0  0  0  0  0  0  0  0999 V2000
   -2.4655    0.8263   -1.2607 F   0  0  0  0  0  0  0  0  0  0  0  0
   -2.5218   -0.3051   -0.5254 C   0  0  0  0  0  0  0  0  0  0  0  0
   -3.8118   -0.4793   -0.1526 F   0  0  0  0  0  0  0  0  0  0  0  0
   -2.1902   -1.3441   -1.3219 F   0  0  0  0  0  0  0  0  0  0  0  0
   -1.6300   -0.2266    0.7018 C   0  0  0  0  0  0  0  0  0  0  0  0
   -0.1668   -0.0318    0.3784 C   0  0  0  0  0  0  0  0  0  0  0  0
    0.3684    1.2583    0.2490 C   0  0  0  0  0  0  0  0  0  0  0  0
    1.7192    1.4304   -0.0612 C   0  0  0  0  0  0  0  0  0  0  0  0
    2.4238    3.1774   -0.2276 Br  0  0  0  0  0  0  0  0  0  0  0  0
    2.5524    0.3309   -0.2500 C   0  0  0  0  0  0  0  0  0  0  0  0
    2.0213   -0.9505   -0.1283 C   0  0  0  0  0  0  0  0  0  0  0  0
    3.1383   -2.4545   -0.3864 Br  0  0  0  0  0  0  0  0  0  0  0  0
    0.6724   -1.1384    0.1815 C   0  0  0  0  0  0  0  0  0  0  0  0
   -1.9692    0.5940    1.3460 H   0  0  0  0  0  0  0  0  0  0  0  0
   -1.7491   -1.1402    1.2971 H   0  0  0  0  0  0  0  0  0  0  0  0
   -0.2683    2.1307    0.3864 H   0  0  0  0  0  0  0  0  0  0  0  0
    3.6022    0.4709   -0.4920 H   0  0  0  0  0  0  0  0  0  0  0  0
    0.2746   -2.1483    0.2658 H   0  0  0  0  0  0  0  0  0  0  0  0
  1  2  1  0
  2  3  1  0
  2  4  1  0
  2  5  1  0
  5  6  1  0
  6  7  2  0
  7  8  1  0
  8  9  1  0
  8 10  2  0
 10 11  1  0
 11 12  1  0
 11 13  2  0
 13  6  1  0
  5 14  1  0
  5 15  1  0
  7 16  1  0
 10 17  1  0
 13 18  1  0
M  END
