
     RDKit          3D

 12 12  0  0  0  0  0  0  0  0999 V2000
    3.1608   -0.7087    0.2368 Br  0  0  0  0  0  0  0  0  0  0  0  0
    1.3273   -0.2666    0.1005 C   0  0  0  0  0  0  0  0  0  0  0  0
    0.9381    1.0732    0.1121 C   0  0  0  0  0  0  0  0  0  0  0  0
   -0.4145    1.4024    0.0116 C   0  0  0  0  0  0  0  0  0  0  0  0
   -1.3713    0.3924   -0.1000 C   0  0  0  0  0  0  0  0  0  0  0  0
   -0.9696   -0.9438   -0.1105 C   0  0  0  0  0  0  0  0  0  0  0  0
   -2.2687   -2.3094   -0.2618 Br  0  0  0  0  0  0  0  0  0  0  0  0
    0.3789   -1.2820   -0.0106 C   0  0  0  0  0  0  0  0  0  0  0  0
    1.6780    1.8650    0.1987 H   0  0  0  0  0  0  0  0  0  0  0  0
   -0.7227    2.4451    0.0202 H   0  0  0  0  0  0  0  0  0  0  0  0
   -2.4231    0.6559   -0.1779 H   0  0  0  0  0  0  0  0  0  0  0  0
    0.6868   -2.3236   -0.0192 H   0  0  0  0  0  0  0  0  0  0  0  0
  1  2  1  0
  2  3  2  0
  3  4  1  0
  4  5  2  0
  5  6  1  0
  6  7  1  0
  6  8  2  0
  8  2  1  0
  3  9  1  0
  4 10  1  0
  5 11  1  0
  8 12  1  0
M  END
