
     RDKit          3D

 14 14  0  0  0  0  0  0  0  0999 V2000
    2.7461   -0.9848   -1.0967 O   0  0  0  0  0  0  0  0  0  0  0  0
    2.3181   -0.4137   -0.0866 N   0  0  0  0  0  4  0  0  0  0  0  0
    2.9827   -0.0693    0.8977 O   0  0  0  0  0  1  0  0  0  0  0  0
    0.8967   -0.1712   -0.0318 C   0  0  0  0  0  0  0  0  0  0  0  0
    0.0709   -1.2538    0.3044 C   0  0  0  0  0  0  0  0  0  0  0  0
   -1.3084   -1.0586    0.3738 C   0  0  0  0  0  0  0  0  0  0  0  0
   -1.8405    0.2053    0.1067 C   0  0  0  0  0  0  0  0  0  0  0  0
   -3.7136    0.4541    0.2047 Br  0  0  0  0  0  0  0  0  0  0  0  0
   -1.0009    1.2721   -0.2311 C   0  0  0  0  0  0  0  0  0  0  0  0
   -1.5343    2.4772   -0.4892 F   0  0  0  0  0  0  0  0  0  0  0  0
    0.3822    1.0960   -0.3057 C   0  0  0  0  0  0  0  0  0  0  0  0
    1.4676    2.5745   -0.7914 Br  0  0  0  0  0  0  0  0  0  0  0  0
    0.4922   -2.2364    0.5104 H   0  0  0  0  0  0  0  0  0  0  0  0
   -1.9588   -1.8913    0.6347 H   0  0  0  0  0  0  0  0  0  0  0  0
  1  2  2  0
  2  3  1  0
  2  4  1  0
  4  5  2  0
  5  6  1  0
  6  7  2  0
  7  8  1  0
  7  9  1  0
  9 10  1  0
  9 11  2  0
 11 12  1  0
 11  4  1  0
  5 13  1  0
  6 14  1  0
M  CHG  2   2   1   3  -1
M  END
