
     RDKit          3D

 15 15  0  0  0  0  0  0  0  0999 V2000
    2.8257    0.6068   -1.0213 F   0  0  0  0  0  0  0  0  0  0  0  0
    2.2624   -0.0164    0.0509 C   0  0  0  0  0  0  0  0  0  0  0  0
    2.7876   -1.2731    0.0660 F   0  0  0  0  0  0  0  0  0  0  0  0
    0.7563   -0.0102    0.0089 C   0  0  0  0  0  0  0  0  0  0  0  0
    0.0227   -1.0433    0.6119 C   0  0  0  0  0  0  0  0  0  0  0  0
   -1.3728   -1.0171    0.5929 C   0  0  0  0  0  0  0  0  0  0  0  0
   -2.3447   -2.4202    1.4063 Br  0  0  0  0  0  0  0  0  0  0  0  0
   -2.0566    0.0324   -0.0160 C   0  0  0  0  0  0  0  0  0  0  0  0
   -1.3306    1.0622   -0.6096 C   0  0  0  0  0  0  0  0  0  0  0  0
   -2.2450    2.4957   -1.4367 Br  0  0  0  0  0  0  0  0  0  0  0  0
    0.0651    1.0494   -0.5984 C   0  0  0  0  0  0  0  0  0  0  0  0
    2.6054    0.4987    0.9536 H   0  0  0  0  0  0  0  0  0  0  0  0
    0.5459   -1.8712    1.0885 H   0  0  0  0  0  0  0  0  0  0  0  0
   -3.1430    0.0474   -0.0282 H   0  0  0  0  0  0  0  0  0  0  0  0
    0.6215    1.8589   -1.0688 H   0  0  0  0  0  0  0  0  0  0  0  0
  1  2  1  0
  2  3  1  0
  2  4  1  0
  4  5  2  0
  5  6  1  0
  6  7  1  0
  6  8  2  0
  8  9  1  0
  9 10  1  0
  9 11  2  0
 11  4  1  0
  2 12  1  0
  5 13  1  0
  8 14  1  0
 11 15  1  0
M  END
