
     RDKit          3D

 80 84  0  0  0  0  0  0  0  0999 V2000
    7.6762   -1.2110   -0.9813 C   0  0  0  0  0  0  0  0  0  0  0  0
    6.8304   -2.4667   -1.1262 C   0  0  0  0  0  0  0  0  0  0  0  0
    5.3435   -2.1799   -1.3587 C   0  0  0  0  0  0  0  0  0  0  0  0
    4.6754   -1.4765   -0.1701 C   0  0  0  0  0  0  0  0  0  0  0  0
    3.1304   -1.3647   -0.2138 C   0  0  0  0  0  0  0  0  0  0  0  0
    2.4249   -2.5693    0.4536 C   0  0  0  0  0  0  0  0  0  0  0  0
    2.6105   -3.9229   -0.2112 C   0  0  0  0  0  0  0  0  0  0  0  0
    2.6028   -1.0204   -1.6250 C   0  0  0  0  0  0  0  0  0  0  0  0
    1.1664   -0.5497   -1.6269 C   0  0  0  0  0  0  0  0  0  0  0  0
    0.6334    0.6692   -1.2356 C   0  0  0  0  0  0  0  0  0  0  0  0
   -0.8128    0.6989   -1.3863 C   0  0  0  0  0  0  0  0  0  0  0  0
   -1.3122   -0.5093   -1.8577 C   0  0  0  0  0  0  0  0  0  0  0  0
   -0.0433   -1.6035   -2.2135 S   0  0  0  0  0  0  0  0  0  0  0  0
   -2.7390   -0.9360   -2.1346 C   0  0  0  0  0  0  0  0  0  0  0  0
   -3.4740   -1.6553   -0.9647 C   0  0  0  0  0  0  0  0  0  0  0  0
   -2.8666   -3.0502   -0.6890 C   0  0  0  0  0  0  0  0  0  0  0  0
   -3.8957   -4.1114   -0.3183 C   0  0  0  0  0  0  0  0  0  0  0  0
   -3.5393   -0.7523    0.2894 C   0  0  0  0  0  0  0  0  0  0  0  0
   -4.4255   -1.2128    1.4497 C   0  0  0  0  0  0  0  0  0  0  0  0
   -5.9063   -1.3110    1.0820 C   0  0  0  0  0  0  0  0  0  0  0  0
   -6.7544   -1.6751    2.2908 C   0  0  0  0  0  0  0  0  0  0  0  0
   -1.6188    1.8845   -1.0635 C   0  0  0  0  0  0  0  0  0  0  0  0
   -2.7866    2.0204   -1.4023 O   0  0  0  0  0  0  0  0  0  0  0  0
   -0.8669    2.9108   -0.3339 C   0  0  0  0  0  0  0  0  0  0  0  0
   -1.4282    3.9989    0.3138 C   0  0  0  0  0  0  0  0  0  0  0  0
   -0.2339    5.0424    0.9501 S   0  0  0  0  0  0  0  0  0  0  0  0
    1.0458    4.0183    0.4576 C   0  0  0  0  0  0  0  0  0  0  0  0
    0.5799    2.8918   -0.2012 C   0  0  0  0  0  0  0  0  0  0  0  0
    1.4161    1.8063   -0.7262 C   0  0  0  0  0  0  0  0  0  0  0  0
    2.6399    1.8333   -0.7278 O   0  0  0  0  0  0  0  0  0  0  0  0
    2.4010    4.3809    0.7767 C   0  0  0  0  0  0  0  0  0  0  0  0
    3.2309    3.7784    1.7038 C   0  0  0  0  0  0  0  0  0  0  0  0
    4.5199    4.3918    1.7555 C   0  0  0  0  0  0  0  0  0  0  0  0
    4.6090    5.4304    0.8647 C   0  0  0  0  0  0  0  0  0  0  0  0
    3.1884    5.6787   -0.0229 S   0  0  0  0  0  0  0  0  0  0  0  0
    6.1798    6.4958    0.6426 Br  0  0  0  0  0  0  0  0  0  0  0  0
   -2.8177    4.3107    0.5165 C   0  0  0  0  0  0  0  0  0  0  0  0
   -3.5293    5.3771   -0.0005 C   0  0  0  0  0  0  0  0  0  0  0  0
   -4.8965    5.3665    0.4148 C   0  0  0  0  0  0  0  0  0  0  0  0
   -5.1572    4.2972    1.2338 C   0  0  0  0  0  0  0  0  0  0  0  0
   -3.7994    3.3307    1.5294 S   0  0  0  0  0  0  0  0  0  0  0  0
   -6.8773    3.9339    1.9820 Br  0  0  0  0  0  0  0  0  0  0  0  0
    7.5490   -0.5497   -1.8441 H   0  0  0  0  0  0  0  0  0  0  0  0
    7.4156   -0.6539   -0.0767 H   0  0  0  0  0  0  0  0  0  0  0  0
    8.7357   -1.4782   -0.9122 H   0  0  0  0  0  0  0  0  0  0  0  0
    7.2094   -3.0471   -1.9763 H   0  0  0  0  0  0  0  0  0  0  0  0
    6.9536   -3.0941   -0.2355 H   0  0  0  0  0  0  0  0  0  0  0  0
    4.8477   -3.1310   -1.5696 H   0  0  0  0  0  0  0  0  0  0  0  0
    5.2389   -1.5660   -2.2612 H   0  0  0  0  0  0  0  0  0  0  0  0
    5.0717   -0.4533   -0.1223 H   0  0  0  0  0  0  0  0  0  0  0  0
    4.9763   -1.9597    0.7679 H   0  0  0  0  0  0  0  0  0  0  0  0
    2.8901   -0.5174    0.4451 H   0  0  0  0  0  0  0  0  0  0  0  0
    2.7751   -2.6489    1.4911 H   0  0  0  0  0  0  0  0  0  0  0  0
    1.3506   -2.3625    0.5270 H   0  0  0  0  0  0  0  0  0  0  0  0
    1.9678   -4.6646    0.2755 H   0  0  0  0  0  0  0  0  0  0  0  0
    3.6399   -4.2771   -0.1087 H   0  0  0  0  0  0  0  0  0  0  0  0
    2.3458   -3.9022   -1.2713 H   0  0  0  0  0  0  0  0  0  0  0  0
    3.2181   -0.2248   -2.0642 H   0  0  0  0  0  0  0  0  0  0  0  0
    2.7216   -1.8791   -2.2965 H   0  0  0  0  0  0  0  0  0  0  0  0
   -2.7563   -1.5923   -3.0161 H   0  0  0  0  0  0  0  0  0  0  0  0
   -3.3302   -0.0648   -2.4379 H   0  0  0  0  0  0  0  0  0  0  0  0
   -4.4986   -1.8021   -1.3295 H   0  0  0  0  0  0  0  0  0  0  0  0
   -2.1025   -2.9897    0.0938 H   0  0  0  0  0  0  0  0  0  0  0  0
   -2.3679   -3.4217   -1.5917 H   0  0  0  0  0  0  0  0  0  0  0  0
   -4.6622   -4.1985   -1.0947 H   0  0  0  0  0  0  0  0  0  0  0  0
   -3.4057   -5.0861   -0.2226 H   0  0  0  0  0  0  0  0  0  0  0  0
   -4.3917   -3.9026    0.6303 H   0  0  0  0  0  0  0  0  0  0  0  0
   -3.8994    0.2364   -0.0138 H   0  0  0  0  0  0  0  0  0  0  0  0
   -2.5277   -0.6098    0.6879 H   0  0  0  0  0  0  0  0  0  0  0  0
   -4.3171   -0.4798    2.2606 H   0  0  0  0  0  0  0  0  0  0  0  0
   -4.0613   -2.1606    1.8573 H   0  0  0  0  0  0  0  0  0  0  0  0
   -6.2524   -0.3526    0.6771 H   0  0  0  0  0  0  0  0  0  0  0  0
   -6.0624   -2.0657    0.3050 H   0  0  0  0  0  0  0  0  0  0  0  0
   -7.8103   -1.7338    2.0086 H   0  0  0  0  0  0  0  0  0  0  0  0
   -6.4575   -2.6462    2.6987 H   0  0  0  0  0  0  0  0  0  0  0  0
   -6.6551   -0.9238    3.0807 H   0  0  0  0  0  0  0  0  0  0  0  0
    2.9359    2.9326    2.3134 H   0  0  0  0  0  0  0  0  0  0  0  0
    5.3252    4.0764    2.4074 H   0  0  0  0  0  0  0  0  0  0  0  0
   -3.0984    6.1247   -0.6560 H   0  0  0  0  0  0  0  0  0  0  0  0
   -5.6347    6.1006    0.1175 H   0  0  0  0  0  0  0  0  0  0  0  0
  1  2  1  0
  2  3  1  0
  3  4  1  0
  4  5  1  0
  5  6  1  0
  6  7  1  0
  5  8  1  0
  8  9  1  0
  9 10  2  0
 10 11  1  0
 11 12  2  0
 12 13  1  0
 12 14  1  0
 14 15  1  0
 15 16  1  0
 16 17  1  0
 15 18  1  0
 18 19  1  0
 19 20  1  0
 20 21  1  0
 11 22  1  0
 22 23  2  0
 22 24  1  0
 24 25  2  0
 25 26  1  0
 26 27  1  0
 27 28  2  0
 28 29  1  0
 29 30  2  0
 27 31  1  0
 31 32  2  0
 32 33  1  0
 33 34  2  0
 34 35  1  0
 34 36  1  0
 25 37  1  0
 37 38  2  0
 38 39  1  0
 39 40  2  0
 40 41  1  0
 40 42  1  0
 13  9  1  0
 29 10  1  0
 28 24  1  0
 35 31  1  0
 41 37  1  0
  1 43  1  0
  1 44  1  0
  1 45  1  0
  2 46  1  0
  2 47  1  0
  3 48  1  0
  3 49  1  0
  4 50  1  0
  4 51  1  0
  5 52  1  0
  6 53  1  0
  6 54  1  0
  7 55  1  0
  7 56  1  0
  7 57  1  0
  8 58  1  0
  8 59  1  0
 14 60  1  0
 14 61  1  0
 15 62  1  0
 16 63  1  0
 16 64  1  0
 17 65  1  0
 17 66  1  0
 17 67  1  0
 18 68  1  0
 18 69  1  0
 19 70  1  0
 19 71  1  0
 20 72  1  0
 20 73  1  0
 21 74  1  0
 21 75  1  0
 21 76  1  0
 32 77  1  0
 33 78  1  0
 38 79  1  0
 39 80  1  0
M  END
