
     RDKit          3D

 12 12  0  0  0  0  0  0  0  0999 V2000
   -0.6892    2.6756    0.0221 F   0  0  0  0  0  0  0  0  0  0  0  0
   -0.3551    1.3787    0.0114 C   0  0  0  0  0  0  0  0  0  0  0  0
    0.9884    1.0215    0.0059 C   0  0  0  0  0  0  0  0  0  0  0  0
    1.3283   -0.3288   -0.0052 C   0  0  0  0  0  0  0  0  0  0  0  0
    3.1497   -0.8349   -0.0128 Br  0  0  0  0  0  0  0  0  0  0  0  0
    0.3379   -1.3118   -0.0108 C   0  0  0  0  0  0  0  0  0  0  0  0
   -1.0042   -0.9296   -0.0052 C   0  0  0  0  0  0  0  0  0  0  0  0
   -2.3544   -2.2526   -0.0127 Br  0  0  0  0  0  0  0  0  0  0  0  0
   -1.3589    0.4169    0.0060 C   0  0  0  0  0  0  0  0  0  0  0  0
    1.7462    1.7984    0.0104 H   0  0  0  0  0  0  0  0  0  0  0  0
    0.6090   -2.3644   -0.0195 H   0  0  0  0  0  0  0  0  0  0  0  0
   -2.3977    0.7310    0.0105 H   0  0  0  0  0  0  0  0  0  0  0  0
  1  2  1  0
  2  3  2  0
  3  4  1  0
  4  5  1  0
  4  6  2  0
  6  7  1  0
  7  8  1  0
  7  9  2  0
  9  2  1  0
  3 10  1  0
  6 11  1  0
  9 12  1  0
M  END
