
     RDKit          3D

 16 16  0  0  0  0  0  0  0  0999 V2000
    1.1235   -1.6049   -2.1944 C   0  0  0  0  0  0  0  0  0  0  0  0
    1.0149   -1.5541   -0.7769 O   0  0  0  0  0  0  0  0  0  0  0  0
    0.3191   -0.5043   -0.2432 C   0  0  0  0  0  0  0  0  0  0  0  0
    0.2449   -0.5058    1.1527 C   0  0  0  0  0  0  0  0  0  0  0  0
   -0.4369    0.5104    1.8214 C   0  0  0  0  0  0  0  0  0  0  0  0
   -0.5277    0.4931    3.7098 Br  0  0  0  0  0  0  0  0  0  0  0  0
   -1.0512    1.5371    1.1110 C   0  0  0  0  0  0  0  0  0  0  0  0
   -0.9750    1.5350   -0.2797 C   0  0  0  0  0  0  0  0  0  0  0  0
   -1.8053    2.9245   -1.2600 Br  0  0  0  0  0  0  0  0  0  0  0  0
   -0.2947    0.5224   -0.9620 C   0  0  0  0  0  0  0  0  0  0  0  0
    1.6617   -0.7328   -2.5801 H   0  0  0  0  0  0  0  0  0  0  0  0
    1.7037   -2.4958   -2.4534 H   0  0  0  0  0  0  0  0  0  0  0  0
    0.1382   -1.7011   -2.6621 H   0  0  0  0  0  0  0  0  0  0  0  0
    0.7241   -1.3071    1.7102 H   0  0  0  0  0  0  0  0  0  0  0  0
   -1.5820    2.3280    1.6334 H   0  0  0  0  0  0  0  0  0  0  0  0
   -0.2573    0.5553   -2.0455 H   0  0  0  0  0  0  0  0  0  0  0  0
  1  2  1  0
  2  3  1  0
  3  4  2  0
  4  5  1  0
  5  6  1  0
  5  7  2  0
  7  8  1  0
  8  9  1  0
  8 10  2  0
 10  3  1  0
  1 11  1  0
  1 12  1  0
  1 13  1  0
  4 14  1  0
  7 15  1  0
 10 16  1  0
M  END
