
     RDKit          3D

 12 12  0  0  0  0  0  0  0  0999 V2000
   -2.7486    0.0434   -0.0682 F   0  0  0  0  0  0  0  0  0  0  0  0
   -1.4088    0.0029   -0.0335 C   0  0  0  0  0  0  0  0  0  0  0  0
   -0.7858   -1.2394    0.0757 C   0  0  0  0  0  0  0  0  0  0  0  0
    0.6071   -1.3161    0.1145 C   0  0  0  0  0  0  0  0  0  0  0  0
    1.3637   -0.1443    0.0432 C   0  0  0  0  0  0  0  0  0  0  0  0
    3.2512   -0.2602    0.0965 Br  0  0  0  0  0  0  0  0  0  0  0  0
    0.7323    1.0964   -0.0661 C   0  0  0  0  0  0  0  0  0  0  0  0
    1.4688    2.2172   -0.1340 F   0  0  0  0  0  0  0  0  0  0  0  0
   -0.6582    1.1745   -0.1049 C   0  0  0  0  0  0  0  0  0  0  0  0
   -1.5198    2.8518   -0.2528 Br  0  0  0  0  0  0  0  0  0  0  0  0
   -1.3923   -2.1393    0.1299 H   0  0  0  0  0  0  0  0  0  0  0  0
    1.0904   -2.2868    0.1997 H   0  0  0  0  0  0  0  0  0  0  0  0
  1  2  1  0
  2  3  2  0
  3  4  1  0
  4  5  2  0
  5  6  1  0
  5  7  1  0
  7  8  1  0
  7  9  2  0
  9 10  1  0
  9  2  1  0
  3 11  1  0
  4 12  1  0
M  END
