
     RDKit          3D

 12 12  0  0  0  0  0  0  0  0999 V2000
    1.9619    1.9043    0.2065 F   0  0  0  0  0  0  0  0  0  0  0  0
    0.9917    0.9843    0.1054 C   0  0  0  0  0  0  0  0  0  0  0  0
   -0.3316    1.4144    0.0499 C   0  0  0  0  0  0  0  0  0  0  0  0
   -1.3596    0.4763   -0.0554 C   0  0  0  0  0  0  0  0  0  0  0  0
   -1.0503   -0.8846   -0.1039 C   0  0  0  0  0  0  0  0  0  0  0  0
   -2.4441   -2.1541   -0.2465 Br  0  0  0  0  0  0  0  0  0  0  0  0
    0.2752   -1.3184   -0.0485 C   0  0  0  0  0  0  0  0  0  0  0  0
    1.2980   -0.3750    0.0567 C   0  0  0  0  0  0  0  0  0  0  0  0
    3.0954   -0.9585    0.1322 Br  0  0  0  0  0  0  0  0  0  0  0  0
   -0.5521    2.4769    0.0890 H   0  0  0  0  0  0  0  0  0  0  0  0
   -2.3924    0.8135   -0.0986 H   0  0  0  0  0  0  0  0  0  0  0  0
    0.5079   -2.3792   -0.0868 H   0  0  0  0  0  0  0  0  0  0  0  0
  1  2  1  0
  2  3  2  0
  3  4  1  0
  4  5  2  0
  5  6  1  0
  5  7  1  0
  7  8  2  0
  8  9  1  0
  8  2  1  0
  3 10  1  0
  4 11  1  0
  7 12  1  0
M  END
