
     RDKit          3D

 12 12  0  0  0  0  0  0  0  0999 V2000
   -0.1358    3.1555   -0.2012 Cl  0  0  0  0  0  0  0  0  0  0  0  0
   -0.0620    1.4408   -0.0919 C   0  0  0  0  0  0  0  0  0  0  0  0
    1.1746    0.8047   -0.0483 C   0  0  0  0  0  0  0  0  0  0  0  0
    1.2359   -0.5907    0.0407 C   0  0  0  0  0  0  0  0  0  0  0  0
    2.9734   -1.3658    0.0943 Br  0  0  0  0  0  0  0  0  0  0  0  0
    0.0584   -1.3559    0.0864 C   0  0  0  0  0  0  0  0  0  0  0  0
    0.1328   -3.0856    0.1967 Cl  0  0  0  0  0  0  0  0  0  0  0  0
   -1.1806   -0.6947    0.0413 C   0  0  0  0  0  0  0  0  0  0  0  0
   -2.8450   -1.6162    0.0958 Br  0  0  0  0  0  0  0  0  0  0  0  0
   -1.2394    0.7008   -0.0477 C   0  0  0  0  0  0  0  0  0  0  0  0
    2.0870    1.3959   -0.0837 H   0  0  0  0  0  0  0  0  0  0  0  0
   -2.1993    1.2114   -0.0826 H   0  0  0  0  0  0  0  0  0  0  0  0
  1  2  1  0
  2  3  2  0
  3  4  1  0
  4  5  1  0
  4  6  2  0
  6  7  1  0
  6  8  1  0
  8  9  1  0
  8 10  2  0
 10  2  1  0
  3 11  1  0
 10 12  1  0
M  END
