
     RDKit          3D

 12 12  0  0  0  0  0  0  0  0999 V2000
    3.1608   -0.1537   -0.0431 Cl  0  0  0  0  0  0  0  0  0  0  0  0
    1.4432   -0.0702   -0.0197 C   0  0  0  0  0  0  0  0  0  0  0  0
    0.6960   -1.2424    0.0362 C   0  0  0  0  0  0  0  0  0  0  0  0
   -0.7019   -1.1758    0.0553 C   0  0  0  0  0  0  0  0  0  0  0  0
   -1.6333   -2.8338    0.1323 Br  0  0  0  0  0  0  0  0  0  0  0  0
   -1.3581    0.0660    0.0185 C   0  0  0  0  0  0  0  0  0  0  0  0
   -3.0908    0.1502    0.0422 Cl  0  0  0  0  0  0  0  0  0  0  0  0
   -0.5858    1.2384   -0.0377 C   0  0  0  0  0  0  0  0  0  0  0  0
   -1.3538    2.9790   -0.0916 Br  0  0  0  0  0  0  0  0  0  0  0  0
    0.8120    1.1691   -0.0568 C   0  0  0  0  0  0  0  0  0  0  0  0
    1.2029   -2.2045    0.0647 H   0  0  0  0  0  0  0  0  0  0  0  0
    1.4088    2.0776   -0.1004 H   0  0  0  0  0  0  0  0  0  0  0  0
  1  2  1  0
  2  3  2  0
  3  4  1  0
  4  5  1  0
  4  6  2  0
  6  7  1  0
  6  8  1  0
  8  9  1  0
  8 10  2  0
 10  2  1  0
  3 11  1  0
 10 12  1  0
M  END
