
     RDKit          3D

 12 12  0  0  0  0  0  0  0  0999 V2000
    2.3501   -2.0771   -0.0884 Cl  0  0  0  0  0  0  0  0  0  0  0  0
    1.0535   -0.9317   -0.0397 C   0  0  0  0  0  0  0  0  0  0  0  0
   -0.2419   -1.4553   -0.0180 C   0  0  0  0  0  0  0  0  0  0  0  0
   -1.3421   -0.6025    0.0215 C   0  0  0  0  0  0  0  0  0  0  0  0
   -1.1528    0.7819    0.0395 C   0  0  0  0  0  0  0  0  0  0  0  0
   -2.7252    1.8532    0.0935 Br  0  0  0  0  0  0  0  0  0  0  0  0
    0.1448    1.3238    0.0181 C   0  0  0  0  0  0  0  0  0  0  0  0
    0.3609    3.0496    0.0411 Cl  0  0  0  0  0  0  0  0  0  0  0  0
    1.2581    0.4590   -0.0219 C   0  0  0  0  0  0  0  0  0  0  0  0
    3.0397    1.1590   -0.0520 Br  0  0  0  0  0  0  0  0  0  0  0  0
   -0.4013   -2.5320   -0.0317 H   0  0  0  0  0  0  0  0  0  0  0  0
   -2.3438   -1.0279    0.0379 H   0  0  0  0  0  0  0  0  0  0  0  0
  1  2  1  0
  2  3  2  0
  3  4  1  0
  4  5  2  0
  5  6  1  0
  5  7  1  0
  7  8  1  0
  7  9  2  0
  9 10  1  0
  9  2  1  0
  3 11  1  0
  4 12  1  0
M  END
