
     RDKit          3D

 17 18  0  0  0  0  0  0  0  0999 V2000
    4.4305   -0.6112    0.0734 Br  0  0  0  0  0  0  0  0  0  0  0  0
    2.6210   -0.0442    0.0297 C   0  0  0  0  0  0  0  0  0  0  0  0
    1.6219   -1.0014    0.0604 C   0  0  0  0  0  0  0  0  0  0  0  0
    0.2865   -0.5870    0.0283 C   0  0  0  0  0  0  0  0  0  0  0  0
   -0.7520   -1.5335    0.0581 C   0  0  0  0  0  0  0  0  0  0  0  0
   -2.0872   -1.1339    0.0267 C   0  0  0  0  0  0  0  0  0  0  0  0
   -2.4033    0.2170   -0.0349 C   0  0  0  0  0  0  0  0  0  0  0  0
   -1.3829    1.1698   -0.0651 C   0  0  0  0  0  0  0  0  0  0  0  0
   -0.0154    0.7916   -0.0343 C   0  0  0  0  0  0  0  0  0  0  0  0
    1.0909    1.6713   -0.0604 C   0  0  0  0  0  0  0  0  0  0  0  0
    0.8506    3.5653   -0.1445 Br  0  0  0  0  0  0  0  0  0  0  0  0
    2.3859    1.2773   -0.0297 N   0  0  0  0  0  0  0  0  0  0  0  0
    1.8770   -2.0556    0.1085 H   0  0  0  0  0  0  0  0  0  0  0  0
   -0.5290   -2.5981    0.1063 H   0  0  0  0  0  0  0  0  0  0  0  0
   -2.8793   -1.8784    0.0503 H   0  0  0  0  0  0  0  0  0  0  0  0
   -3.4434    0.5334   -0.0595 H   0  0  0  0  0  0  0  0  0  0  0  0
   -1.6717    2.2175   -0.1133 H   0  0  0  0  0  0  0  0  0  0  0  0
  1  2  1  0
  2  3  2  0
  3  4  1  0
  4  5  2  0
  5  6  1  0
  6  7  2  0
  7  8  1  0
  8  9  2  0
  9 10  1  0
 10 11  1  0
 10 12  2  0
 12  2  1  0
  9  4  1  0
  3 13  1  0
  5 14  1  0
  6 15  1  0
  7 16  1  0
  8 17  1  0
M  END
