
     RDKit          3D

 17 18  0  0  0  0  0  0  0  0999 V2000
    4.0939   -1.7827   -0.2649 Br  0  0  0  0  0  0  0  0  0  0  0  0
    2.4908   -0.8163    0.0418 C   0  0  0  0  0  0  0  0  0  0  0  0
    1.3296   -1.2365   -0.5831 C   0  0  0  0  0  0  0  0  0  0  0  0
    0.1458   -0.5263   -0.3594 C   0  0  0  0  0  0  0  0  0  0  0  0
   -1.0507   -0.9267   -0.9787 C   0  0  0  0  0  0  0  0  0  0  0  0
   -2.2377   -0.2277   -0.7642 C   0  0  0  0  0  0  0  0  0  0  0  0
   -2.2456    0.8810    0.0720 C   0  0  0  0  0  0  0  0  0  0  0  0
   -1.0651    1.2916    0.6948 C   0  0  0  0  0  0  0  0  0  0  0  0
    0.1573    0.5990    0.4945 C   0  0  0  0  0  0  0  0  0  0  0  0
    1.4039    0.9289    1.0738 C   0  0  0  0  0  0  0  0  0  0  0  0
    1.5863    2.4227    2.2515 Br  0  0  0  0  0  0  0  0  0  0  0  0
    2.5537    0.2461    0.8618 N   0  0  0  0  0  0  0  0  0  0  0  0
    1.3439   -2.1043   -1.2354 H   0  0  0  0  0  0  0  0  0  0  0  0
   -1.0693   -1.7926   -1.6383 H   0  0  0  0  0  0  0  0  0  0  0  0
   -3.1551   -0.5501   -1.2506 H   0  0  0  0  0  0  0  0  0  0  0  0
   -3.1691    1.4293    0.2423 H   0  0  0  0  0  0  0  0  0  0  0  0
   -1.1129    2.1645    1.3421 H   0  0  0  0  0  0  0  0  0  0  0  0
  1  2  1  0
  2  3  2  0
  3  4  1  0
  4  5  2  0
  5  6  1  0
  6  7  2  0
  7  8  1  0
  8  9  2  0
  9 10  1  0
 10 11  1  0
 10 12  2  0
 12  2  1  0
  9  4  1  0
  3 13  1  0
  5 14  1  0
  6 15  1  0
  7 16  1  0
  8 17  1  0
M  END
