
     RDKit          3D

 16 16  0  0  0  0  0  0  0  0999 V2000
   -3.9804   -0.1212    0.1084 F   0  0  0  0  0  0  0  0  0  0  0  0
   -2.7317   -0.0891   -0.4196 C   0  0  0  0  0  0  0  0  0  0  0  0
   -2.6799    0.9930   -1.2336 F   0  0  0  0  0  0  0  0  0  0  0  0
   -1.8226    0.0921    0.6547 O   0  0  0  0  0  0  0  0  0  0  0  0
   -0.4891    0.0519    0.3623 C   0  0  0  0  0  0  0  0  0  0  0  0
    0.3487    0.0392    1.4792 C   0  0  0  0  0  0  0  0  0  0  0  0
    1.7409    0.0006    1.3329 C   0  0  0  0  0  0  0  0  0  0  0  0
    2.7691   -0.0213    2.9338 Br  0  0  0  0  0  0  0  0  0  0  0  0
    2.3182   -0.0212    0.0561 C   0  0  0  0  0  0  0  0  0  0  0  0
    4.0412   -0.0740   -0.1361 Cl  0  0  0  0  0  0  0  0  0  0  0  0
    1.4722    0.0013   -1.0635 C   0  0  0  0  0  0  0  0  0  0  0  0
    2.1310   -0.0166   -2.8510 Br  0  0  0  0  0  0  0  0  0  0  0  0
    0.0768    0.0398   -0.9107 C   0  0  0  0  0  0  0  0  0  0  0  0
   -2.5582   -1.0130   -0.9819 H   0  0  0  0  0  0  0  0  0  0  0  0
   -0.0960    0.0594    2.4732 H   0  0  0  0  0  0  0  0  0  0  0  0
   -0.5403    0.0791   -1.8043 H   0  0  0  0  0  0  0  0  0  0  0  0
  1  2  1  0
  2  3  1  0
  2  4  1  0
  4  5  1  0
  5  6  2  0
  6  7  1  0
  7  8  1  0
  7  9  2  0
  9 10  1  0
  9 11  1  0
 11 12  1  0
 11 13  2  0
 13  5  1  0
  2 14  1  0
  6 15  1  0
 13 16  1  0
M  END
