
     RDKit          3D

 18 18  0  0  0  0  0  0  0  0999 V2000
    2.3933   -0.4609    0.6839 C   0  0  0  0  0  0  0  0  0  0  0  0
    1.5769   -0.4369   -0.6011 C   0  0  0  0  0  0  0  0  0  0  0  0
    0.1274   -0.0739   -0.3530 C   0  0  0  0  0  0  0  0  0  0  0  0
   -0.8398   -1.0620   -0.0694 C   0  0  0  0  0  0  0  0  0  0  0  0
   -0.4221   -2.9183    0.0243 Br  0  0  0  0  0  0  0  0  0  0  0  0
   -2.1782   -0.7219    0.1694 C   0  0  0  0  0  0  0  0  0  0  0  0
   -2.5818    0.6082    0.1389 C   0  0  0  0  0  0  0  0  0  0  0  0
   -1.6464    1.6024   -0.1251 C   0  0  0  0  0  0  0  0  0  0  0  0
   -0.3065    1.2692   -0.3647 C   0  0  0  0  0  0  0  0  0  0  0  0
    0.8703    2.7312   -0.6915 Br  0  0  0  0  0  0  0  0  0  0  0  0
    2.3924    0.5155    1.1791 H   0  0  0  0  0  0  0  0  0  0  0  0
    3.4324   -0.7264    0.4646 H   0  0  0  0  0  0  0  0  0  0  0  0
    2.0012   -1.1944    1.3957 H   0  0  0  0  0  0  0  0  0  0  0  0
    2.0332    0.2566   -1.3156 H   0  0  0  0  0  0  0  0  0  0  0  0
    1.6527   -1.4065   -1.1049 H   0  0  0  0  0  0  0  0  0  0  0  0
   -2.9152   -1.4928    0.3839 H   0  0  0  0  0  0  0  0  0  0  0  0
   -3.6203    0.8694    0.3253 H   0  0  0  0  0  0  0  0  0  0  0  0
   -1.9695    2.6412   -0.1399 H   0  0  0  0  0  0  0  0  0  0  0  0
  1  2  1  0
  2  3  1  0
  3  4  2  0
  4  5  1  0
  4  6  1  0
  6  7  2  0
  7  8  1  0
  8  9  2  0
  9 10  1  0
  9  3  1  0
  1 11  1  0
  1 12  1  0
  1 13  1  0
  2 14  1  0
  2 15  1  0
  6 16  1  0
  7 17  1  0
  8 18  1  0
M  END
