
     RDKit          3D

 37 38  0  0  0  0  0  0  0  0999 V2000
   -4.4288    1.1625   -1.4125 C   0  0  0  0  0  0  0  0  0  0  0  0
   -3.1614    1.3612   -0.5957 C   0  0  0  0  0  0  0  0  0  0  0  0
   -2.0118    0.5050   -1.1324 C   0  0  0  0  0  0  0  0  0  0  0  0
   -0.7203    0.6629   -0.3177 C   0  0  0  0  0  0  0  0  0  0  0  0
   -0.4236   -0.4887    0.6777 C   0  0  0  0  0  0  0  0  0  0  0  0
   -1.5666   -0.6679    1.7003 C   0  0  0  0  0  0  0  0  0  0  0  0
   -1.3564   -1.8121    2.6840 C   0  0  0  0  0  0  0  0  0  0  0  0
    0.9301   -0.2498    1.3913 C   0  0  0  0  0  0  0  0  0  0  0  0
    2.0582   -0.1860    0.4811 N   0  0  0  0  0  0  0  0  0  0  0  0
    2.6114   -1.3116   -0.1132 C   0  0  0  0  0  0  0  0  0  0  0  0
    2.2777   -2.4766    0.0123 O   0  0  0  0  0  0  0  0  0  0  0  0
    3.6839   -0.8023   -0.9229 C   0  0  0  0  0  0  0  0  0  0  0  0
    4.6383   -1.2805   -1.7668 C   0  0  0  0  0  0  0  0  0  0  0  0
    5.6013   -0.0044   -2.3863 S   0  0  0  0  0  0  0  0  0  0  0  0
    4.7202    1.1766   -1.5098 C   0  0  0  0  0  0  0  0  0  0  0  0
    3.7308    0.5983   -0.7761 C   0  0  0  0  0  0  0  0  0  0  0  0
    2.6883    0.9992    0.1287 C   0  0  0  0  0  0  0  0  0  0  0  0
    2.4301    2.1335    0.4902 O   0  0  0  0  0  0  0  0  0  0  0  0
    5.1089    3.0391   -1.5841 Br  0  0  0  0  0  0  0  0  0  0  0  0
    4.9042   -3.1088   -2.2267 Br  0  0  0  0  0  0  0  0  0  0  0  0
   -5.2349    1.7903   -1.0199 H   0  0  0  0  0  0  0  0  0  0  0  0
   -4.2672    1.4336   -2.4607 H   0  0  0  0  0  0  0  0  0  0  0  0
   -4.7604    0.1200   -1.3736 H   0  0  0  0  0  0  0  0  0  0  0  0
   -2.8781    2.4199   -0.6290 H   0  0  0  0  0  0  0  0  0  0  0  0
   -3.3717    1.1204    0.4507 H   0  0  0  0  0  0  0  0  0  0  0  0
   -2.3064   -0.5490   -1.1944 H   0  0  0  0  0  0  0  0  0  0  0  0
   -1.8080    0.8273   -2.1620 H   0  0  0  0  0  0  0  0  0  0  0  0
    0.1012    0.7040   -1.0435 H   0  0  0  0  0  0  0  0  0  0  0  0
   -0.7128    1.6256    0.2084 H   0  0  0  0  0  0  0  0  0  0  0  0
   -0.3464   -1.4165    0.0948 H   0  0  0  0  0  0  0  0  0  0  0  0
   -1.7176    0.2626    2.2606 H   0  0  0  0  0  0  0  0  0  0  0  0
   -2.5004   -0.8772    1.1676 H   0  0  0  0  0  0  0  0  0  0  0  0
   -1.1109   -2.7416    2.1611 H   0  0  0  0  0  0  0  0  0  0  0  0
   -0.5591   -1.5894    3.3987 H   0  0  0  0  0  0  0  0  0  0  0  0
   -2.2713   -1.9800    3.2618 H   0  0  0  0  0  0  0  0  0  0  0  0
    1.1419   -1.0744    2.0795 H   0  0  0  0  0  0  0  0  0  0  0  0
    0.8875    0.6750    1.9781 H   0  0  0  0  0  0  0  0  0  0  0  0
  1  2  1  0
  2  3  1  0
  3  4  1  0
  4  5  1  0
  5  6  1  0
  6  7  1  0
  5  8  1  0
  8  9  1  0
  9 10  1  0
 10 11  2  0
 10 12  1  0
 12 13  2  0
 13 14  1  0
 14 15  1  0
 15 16  2  0
 16 17  1  0
 17 18  2  0
 15 19  1  0
 13 20  1  0
 17  9  1  0
 16 12  1  0
  1 21  1  0
  1 22  1  0
  1 23  1  0
  2 24  1  0
  2 25  1  0
  3 26  1  0
  3 27  1  0
  4 28  1  0
  4 29  1  0
  5 30  1  0
  6 31  1  0
  6 32  1  0
  7 33  1  0
  7 34  1  0
  7 35  1  0
  8 36  1  0
  8 37  1  0
M  END
