
     RDKit          3D

 12 12  0  0  0  0  0  0  0  0999 V2000
   -1.2312    2.4084    0.0600 F   0  0  0  0  0  0  0  0  0  0  0  0
   -0.6346    1.2068    0.0304 C   0  0  0  0  0  0  0  0  0  0  0  0
   -1.3934    0.0381    0.0299 C   0  0  0  0  0  0  0  0  0  0  0  0
   -3.2823    0.1166    0.0707 Br  0  0  0  0  0  0  0  0  0  0  0  0
   -0.7612   -1.2073   -0.0011 C   0  0  0  0  0  0  0  0  0  0  0  0
    0.6349   -1.2778   -0.0314 C   0  0  0  0  0  0  0  0  0  0  0  0
    1.3901   -0.1025   -0.0307 C   0  0  0  0  0  0  0  0  0  0  0  0
    3.2773   -0.2147   -0.0720 Br  0  0  0  0  0  0  0  0  0  0  0  0
    0.7537    1.1367    0.0002 C   0  0  0  0  0  0  0  0  0  0  0  0
    1.4689    2.2720    0.0012 F   0  0  0  0  0  0  0  0  0  0  0  0
   -1.3444   -2.1258   -0.0018 H   0  0  0  0  0  0  0  0  0  0  0  0
    1.1222   -2.2503   -0.0555 H   0  0  0  0  0  0  0  0  0  0  0  0
  1  2  1  0
  2  3  2  0
  3  4  1  0
  3  5  1  0
  5  6  2  0
  6  7  1  0
  7  8  1  0
  7  9  2  0
  9 10  1  0
  9  2  1  0
  5 11  1  0
  6 12  1  0
M  END
