
     RDKit          3D

 12 12  0  0  0  0  0  0  0  0999 V2000
   -1.3759   -2.3424    0.0241 F   0  0  0  0  0  0  0  0  0  0  0  0
   -0.7021   -1.1830    0.0123 C   0  0  0  0  0  0  0  0  0  0  0  0
    0.6902   -1.2267   -0.0175 C   0  0  0  0  0  0  0  0  0  0  0  0
    1.4103   -0.0340   -0.0302 C   0  0  0  0  0  0  0  0  0  0  0  0
    3.2987   -0.0796   -0.0706 Br  0  0  0  0  0  0  0  0  0  0  0  0
    0.7487    1.1920   -0.0133 C   0  0  0  0  0  0  0  0  0  0  0  0
   -0.6441    1.2155    0.0165 C   0  0  0  0  0  0  0  0  0  0  0  0
   -1.2611    2.4061    0.0324 F   0  0  0  0  0  0  0  0  0  0  0  0
   -1.3801    0.0333    0.0295 C   0  0  0  0  0  0  0  0  0  0  0  0
   -3.2692    0.0789    0.0700 Br  0  0  0  0  0  0  0  0  0  0  0  0
    1.1902   -2.1907   -0.0304 H   0  0  0  0  0  0  0  0  0  0  0  0
    1.2946    2.1307   -0.0228 H   0  0  0  0  0  0  0  0  0  0  0  0
  1  2  1  0
  2  3  2  0
  3  4  1  0
  4  5  1  0
  4  6  2  0
  6  7  1  0
  7  8  1  0
  7  9  2  0
  9 10  1  0
  9  2  1  0
  3 11  1  0
  6 12  1  0
M  END
