
     RDKit          3D

 15 15  0  0  0  0  0  0  0  0999 V2000
   -2.2542    0.2039    0.1734 C   0  0  0  0  0  0  0  0  0  0  0  0
   -0.7588    0.0447    0.0357 C   0  0  0  0  0  0  0  0  0  0  0  0
   -0.1592   -1.2271    0.0016 C   0  0  0  0  0  0  0  0  0  0  0  0
   -1.1554   -2.8433    0.1334 Br  0  0  0  0  0  0  0  0  0  0  0  0
    1.2256   -1.3658   -0.1150 C   0  0  0  0  0  0  0  0  0  0  0  0
    2.0463   -0.2405   -0.1819 C   0  0  0  0  0  0  0  0  0  0  0  0
    3.7469   -0.5282   -0.3298 Cl  0  0  0  0  0  0  0  0  0  0  0  0
    1.4895    1.0427   -0.1179 C   0  0  0  0  0  0  0  0  0  0  0  0
    2.6279    2.5800   -0.1874 Br  0  0  0  0  0  0  0  0  0  0  0  0
    0.0895    1.1808    0.0013 C   0  0  0  0  0  0  0  0  0  0  0  0
   -0.6204    2.7679    0.1333 Cl  0  0  0  0  0  0  0  0  0  0  0  0
   -2.8068   -0.6506   -0.2254 H   0  0  0  0  0  0  0  0  0  0  0  0
   -2.5199    0.3333    1.2272 H   0  0  0  0  0  0  0  0  0  0  0  0
   -2.6238    1.0600   -0.3995 H   0  0  0  0  0  0  0  0  0  0  0  0
    1.6727   -2.3579   -0.1488 H   0  0  0  0  0  0  0  0  0  0  0  0
  1  2  1  0
  2  3  2  0
  3  4  1  0
  3  5  1  0
  5  6  2  0
  6  7  1  0
  6  8  1  0
  8  9  1  0
  8 10  2  0
 10 11  1  0
 10  2  1  0
  1 12  1  0
  1 13  1  0
  1 14  1  0
  5 15  1  0
M  END
