
     RDKit          3D

 18 19  0  0  0  0  0  0  0  0999 V2000
    1.1461   -3.3802   -0.0515 Br  0  0  0  0  0  0  0  0  0  0  0  0
    1.1394   -1.4719   -0.0411 C   0  0  0  0  0  0  0  0  0  0  0  0
    2.3945   -0.8596   -0.0744 C   0  0  0  0  0  0  0  0  0  0  0  0
    2.4895    0.5248   -0.0697 C   0  0  0  0  0  0  0  0  0  0  0  0
    1.3299    1.3027   -0.0318 C   0  0  0  0  0  0  0  0  0  0  0  0
    1.5973    3.1922   -0.0294 Br  0  0  0  0  0  0  0  0  0  0  0  0
    0.0392    0.7107    0.0027 C   0  0  0  0  0  0  0  0  0  0  0  0
   -1.1610    1.4647    0.0417 C   0  0  0  0  0  0  0  0  0  0  0  0
   -2.4170    0.8591    0.0750 C   0  0  0  0  0  0  0  0  0  0  0  0
   -2.5117   -0.5212    0.0704 C   0  0  0  0  0  0  0  0  0  0  0  0
   -1.3503   -1.2925    0.0324 C   0  0  0  0  0  0  0  0  0  0  0  0
   -0.0583   -0.7094   -0.0021 C   0  0  0  0  0  0  0  0  0  0  0  0
    3.3042   -1.4547   -0.1041 H   0  0  0  0  0  0  0  0  0  0  0  0
    3.4720    0.9902   -0.0958 H   0  0  0  0  0  0  0  0  0  0  0  0
   -1.1373    2.5522    0.0468 H   0  0  0  0  0  0  0  0  0  0  0  0
   -3.3155    1.4700    0.1045 H   0  0  0  0  0  0  0  0  0  0  0  0
   -3.4853   -1.0038    0.0961 H   0  0  0  0  0  0  0  0  0  0  0  0
   -1.4755   -2.3731    0.0303 H   0  0  0  0  0  0  0  0  0  0  0  0
  1  2  1  0
  2  3  2  0
  3  4  1  0
  4  5  2  0
  5  6  1  0
  5  7  1  0
  7  8  2  0
  8  9  1  0
  9 10  2  0
 10 11  1  0
 11 12  2  0
 12  2  1  0
 12  7  1  0
  3 13  1  0
  4 14  1  0
  8 15  1  0
  9 16  1  0
 10 17  1  0
 11 18  1  0
M  END
