
     RDKit          3D

 12 12  0  0  0  0  0  0  0  0999 V2000
   -1.5902    2.6433   -0.0055 Cl  0  0  0  0  0  0  0  0  0  0  0  0
   -0.7072    1.1446   -0.0024 C   0  0  0  0  0  0  0  0  0  0  0  0
   -1.3972   -0.0796   -0.0019 C   0  0  0  0  0  0  0  0  0  0  0  0
   -3.2964   -0.2000   -0.0044 Br  0  0  0  0  0  0  0  0  0  0  0  0
   -0.6939   -1.2874    0.0006 C   0  0  0  0  0  0  0  0  0  0  0  0
    0.6990   -1.2846    0.0026 C   0  0  0  0  0  0  0  0  0  0  0  0
    1.3975   -0.0740    0.0021 C   0  0  0  0  0  0  0  0  0  0  0  0
    3.2971   -0.1867    0.0049 Br  0  0  0  0  0  0  0  0  0  0  0  0
    0.7025    1.1475   -0.0004 C   0  0  0  0  0  0  0  0  0  0  0  0
    1.5796    2.6497   -0.0010 Cl  0  0  0  0  0  0  0  0  0  0  0  0
   -1.2228   -2.2388    0.0010 H   0  0  0  0  0  0  0  0  0  0  0  0
    1.2319   -2.2338    0.0045 H   0  0  0  0  0  0  0  0  0  0  0  0
  1  2  1  0
  2  3  2  0
  3  4  1  0
  3  5  1  0
  5  6  2  0
  6  7  1  0
  7  8  1  0
  7  9  2  0
  9 10  1  0
  9  2  1  0
  5 11  1  0
  6 12  1  0
M  END
