
     RDKit          3D

 12 12  0  0  0  0  0  0  0  0999 V2000
    2.2316   -2.1901   -0.0025 Cl  0  0  0  0  0  0  0  0  0  0  0  0
    1.0246   -0.9547   -0.0034 C   0  0  0  0  0  0  0  0  0  0  0  0
   -0.3116   -1.3588    0.0759 C   0  0  0  0  0  0  0  0  0  0  0  0
   -1.3366   -0.4070    0.0795 C   0  0  0  0  0  0  0  0  0  0  0  0
   -3.1216   -1.0457    0.1900 Br  0  0  0  0  0  0  0  0  0  0  0  0
   -1.0246    0.9547    0.0035 C   0  0  0  0  0  0  0  0  0  0  0  0
   -2.2316    2.1901    0.0024 Cl  0  0  0  0  0  0  0  0  0  0  0  0
    0.3116    1.3588   -0.0759 C   0  0  0  0  0  0  0  0  0  0  0  0
    1.3366    0.4070   -0.0795 C   0  0  0  0  0  0  0  0  0  0  0  0
    3.1216    1.0457   -0.1900 Br  0  0  0  0  0  0  0  0  0  0  0  0
   -0.5508   -2.4187    0.1349 H   0  0  0  0  0  0  0  0  0  0  0  0
    0.5508    2.4187   -0.1349 H   0  0  0  0  0  0  0  0  0  0  0  0
  1  2  1  0
  2  3  2  0
  3  4  1  0
  4  5  1  0
  4  6  2  0
  6  7  1  0
  6  8  1  0
  8  9  2  0
  9 10  1  0
  9  2  1  0
  3 11  1  0
  8 12  1  0
M  END
