
     RDKit          3D

 18 19  0  0  0  0  0  0  0  0999 V2000
   -1.0578    3.3266   -0.7462 Br  0  0  0  0  0  0  0  0  0  0  0  0
   -1.0937    1.4882   -0.2356 C   0  0  0  0  0  0  0  0  0  0  0  0
   -2.3483    0.9761    0.1037 C   0  0  0  0  0  0  0  0  0  0  0  0
   -2.4731   -0.3514    0.4881 C   0  0  0  0  0  0  0  0  0  0  0  0
   -1.3439   -1.1724    0.5348 C   0  0  0  0  0  0  0  0  0  0  0  0
   -1.6504   -2.9757    1.0787 Br  0  0  0  0  0  0  0  0  0  0  0  0
   -0.0546   -0.6821    0.1960 C   0  0  0  0  0  0  0  0  0  0  0  0
    1.1153   -1.4826    0.2306 C   0  0  0  0  0  0  0  0  0  0  0  0
    2.3705   -0.9770   -0.1070 C   0  0  0  0  0  0  0  0  0  0  0  0
    2.4950    0.3466   -0.4903 C   0  0  0  0  0  0  0  0  0  0  0  0
    1.3639    1.1613   -0.5350 C   0  0  0  0  0  0  0  0  0  0  0  0
    0.0734    0.6797   -0.1983 C   0  0  0  0  0  0  0  0  0  0  0  0
   -3.2344    1.6056    0.0711 H   0  0  0  0  0  0  0  0  0  0  0  0
   -3.4549   -0.7388    0.7500 H   0  0  0  0  0  0  0  0  0  0  0  0
    1.0676   -2.5286    0.5255 H   0  0  0  0  0  0  0  0  0  0  0  0
    3.2453   -1.6211   -0.0686 H   0  0  0  0  0  0  0  0  0  0  0  0
    3.4683    0.7511   -0.7555 H   0  0  0  0  0  0  0  0  0  0  0  0
    1.5117    2.1943   -0.8421 H   0  0  0  0  0  0  0  0  0  0  0  0
  1  2  1  0
  2  3  2  0
  3  4  1  0
  4  5  2  0
  5  6  1  0
  5  7  1  0
  7  8  2  0
  8  9  1  0
  9 10  2  0
 10 11  1  0
 11 12  2  0
 12  2  1  0
 12  7  1  0
  3 13  1  0
  4 14  1  0
  8 15  1  0
  9 16  1  0
 10 17  1  0
 11 18  1  0
M  END
