
     RDKit          3D

 16 16  0  0  0  0  0  0  0  0999 V2000
    3.8345   -0.3958    0.1492 F   0  0  0  0  0  0  0  0  0  0  0  0
    2.5626   -0.0363    0.4271 C   0  0  0  0  0  0  0  0  0  0  0  0
    2.1261   -0.7847    1.4626 F   0  0  0  0  0  0  0  0  0  0  0  0
    2.5631    1.2654    0.7878 F   0  0  0  0  0  0  0  0  0  0  0  0
    1.7665   -0.2333   -0.7372 O   0  0  0  0  0  0  0  0  0  0  0  0
    0.4318   -0.1221   -0.4525 C   0  0  0  0  0  0  0  0  0  0  0  0
   -0.1381    1.1450   -0.3009 C   0  0  0  0  0  0  0  0  0  0  0  0
   -1.5058    1.2577   -0.0531 C   0  0  0  0  0  0  0  0  0  0  0  0
   -2.2794    2.9684    0.1678 Br  0  0  0  0  0  0  0  0  0  0  0  0
   -2.3101    0.1211    0.0274 C   0  0  0  0  0  0  0  0  0  0  0  0
   -1.7441   -1.1432   -0.1518 C   0  0  0  0  0  0  0  0  0  0  0  0
   -0.3753   -1.2647   -0.4011 C   0  0  0  0  0  0  0  0  0  0  0  0
    0.3461   -2.9985   -0.6622 Br  0  0  0  0  0  0  0  0  0  0  0  0
    0.4781    2.0369   -0.3826 H   0  0  0  0  0  0  0  0  0  0  0  0
   -3.3769    0.2086    0.2194 H   0  0  0  0  0  0  0  0  0  0  0  0
   -2.3791   -2.0245   -0.1002 H   0  0  0  0  0  0  0  0  0  0  0  0
  1  2  1  0
  2  3  1  0
  2  4  1  0
  2  5  1  0
  5  6  1  0
  6  7  2  0
  7  8  1  0
  8  9  1  0
  8 10  2  0
 10 11  1  0
 11 12  2  0
 12 13  1  0
 12  6  1  0
  7 14  1  0
 10 15  1  0
 11 16  1  0
M  END
