
     RDKit          3D

 12 12  0  0  0  0  0  0  0  0999 V2000
    1.0353    2.5235   -0.1084 F   0  0  0  0  0  0  0  0  0  0  0  0
    0.5378    1.2790   -0.0548 C   0  0  0  0  0  0  0  0  0  0  0  0
   -0.8438    1.1008   -0.0667 C   0  0  0  0  0  0  0  0  0  0  0  0
   -1.6398    2.1784   -0.1315 F   0  0  0  0  0  0  0  0  0  0  0  0
   -1.3892   -0.1792   -0.0120 C   0  0  0  0  0  0  0  0  0  0  0  0
   -3.2643   -0.4211   -0.0282 Br  0  0  0  0  0  0  0  0  0  0  0  0
   -0.5378   -1.2790    0.0548 C   0  0  0  0  0  0  0  0  0  0  0  0
   -1.0353   -2.5235    0.1084 F   0  0  0  0  0  0  0  0  0  0  0  0
    0.8438   -1.1008    0.0667 C   0  0  0  0  0  0  0  0  0  0  0  0
    1.6398   -2.1784    0.1315 F   0  0  0  0  0  0  0  0  0  0  0  0
    1.3892    0.1792    0.0120 C   0  0  0  0  0  0  0  0  0  0  0  0
    3.2643    0.4211    0.0282 Br  0  0  0  0  0  0  0  0  0  0  0  0
  1  2  1  0
  2  3  2  0
  3  4  1  0
  3  5  1  0
  5  6  1  0
  5  7  2  0
  7  8  1  0
  7  9  1  0
  9 10  1  0
  9 11  2  0
 11 12  1  0
 11  2  1  0
M  END
