
     RDKit          3D

 24 24  0  0  0  0  0  0  0  0999 V2000
   -2.4155    1.6458    0.3005 C   0  0  0  0  0  0  0  0  0  0  0  0
   -1.1722    0.7979    0.1360 C   0  0  0  0  0  0  0  0  0  0  0  0
   -1.2894   -0.5901   -0.1359 C   0  0  0  0  0  0  0  0  0  0  0  0
   -2.6572   -1.2176   -0.3002 C   0  0  0  0  0  0  0  0  0  0  0  0
   -0.1164   -1.3788   -0.2172 C   0  0  0  0  0  0  0  0  0  0  0  0
   -0.2776   -3.2882   -0.3751 Br  0  0  0  0  0  0  0  0  0  0  0  0
    1.1722   -0.7979   -0.1360 C   0  0  0  0  0  0  0  0  0  0  0  0
    2.4155   -1.6458   -0.3005 C   0  0  0  0  0  0  0  0  0  0  0  0
    1.2894    0.5901    0.1359 C   0  0  0  0  0  0  0  0  0  0  0  0
    2.6572    1.2176    0.3002 C   0  0  0  0  0  0  0  0  0  0  0  0
    0.1164    1.3788    0.2172 C   0  0  0  0  0  0  0  0  0  0  0  0
    0.2776    3.2882    0.3751 Br  0  0  0  0  0  0  0  0  0  0  0  0
   -3.2464    1.0717    0.7219 H   0  0  0  0  0  0  0  0  0  0  0  0
   -2.7188    2.0603   -0.6657 H   0  0  0  0  0  0  0  0  0  0  0  0
   -2.2694    2.4597    1.0161 H   0  0  0  0  0  0  0  0  0  0  0  0
   -2.6498   -2.0445   -1.0157 H   0  0  0  0  0  0  0  0  0  0  0  0
   -3.3802   -0.5123   -0.7216 H   0  0  0  0  0  0  0  0  0  0  0  0
   -3.0256   -1.5753    0.6661 H   0  0  0  0  0  0  0  0  0  0  0  0
    2.7188   -2.0602    0.6657 H   0  0  0  0  0  0  0  0  0  0  0  0
    2.2694   -2.4597   -1.0160 H   0  0  0  0  0  0  0  0  0  0  0  0
    3.2464   -1.0717   -0.7220 H   0  0  0  0  0  0  0  0  0  0  0  0
    3.3802    0.5123    0.7216 H   0  0  0  0  0  0  0  0  0  0  0  0
    3.0256    1.5753   -0.6660 H   0  0  0  0  0  0  0  0  0  0  0  0
    2.6498    2.0445    1.0157 H   0  0  0  0  0  0  0  0  0  0  0  0
  1  2  1  0
  2  3  2  0
  3  4  1  0
  3  5  1  0
  5  6  1  0
  5  7  2  0
  7  8  1  0
  7  9  1  0
  9 10  1  0
  9 11  2  0
 11 12  1  0
 11  2  1  0
  1 13  1  0
  1 14  1  0
  1 15  1  0
  4 16  1  0
  4 17  1  0
  4 18  1  0
  8 19  1  0
  8 20  1  0
  8 21  1  0
 10 22  1  0
 10 23  1  0
 10 24  1  0
M  END
