
     RDKit          3D

 12 12  0  0  0  0  0  0  0  0999 V2000
   -3.2220   -0.6036   -0.1186 Br  0  0  0  0  0  0  0  0  0  0  0  0
   -1.3652   -0.2558   -0.0503 C   0  0  0  0  0  0  0  0  0  0  0  0
   -0.9075    1.0619   -0.0650 C   0  0  0  0  0  0  0  0  0  0  0  0
    0.4644    1.3189   -0.0145 C   0  0  0  0  0  0  0  0  0  0  0  0
    1.3652    0.2558    0.0503 C   0  0  0  0  0  0  0  0  0  0  0  0
    3.2220    0.6036    0.1186 Br  0  0  0  0  0  0  0  0  0  0  0  0
    0.9075   -1.0619    0.0650 C   0  0  0  0  0  0  0  0  0  0  0  0
   -0.4644   -1.3189    0.0145 C   0  0  0  0  0  0  0  0  0  0  0  0
   -1.6074    1.8920   -0.1154 H   0  0  0  0  0  0  0  0  0  0  0  0
    0.8185    2.3465   -0.0261 H   0  0  0  0  0  0  0  0  0  0  0  0
    1.6074   -1.8920    0.1154 H   0  0  0  0  0  0  0  0  0  0  0  0
   -0.8185   -2.3465    0.0261 H   0  0  0  0  0  0  0  0  0  0  0  0
  1  2  1  0
  2  3  2  0
  3  4  1  0
  4  5  2  0
  5  6  1  0
  5  7  1  0
  7  8  2  0
  8  2  1  0
  3  9  1  0
  4 10  1  0
  7 11  1  0
  8 12  1  0
M  END
