
     RDKit          3D

 17 18  0  0  0  0  0  0  0  0999 V2000
   -3.1847   -1.6542    0.0964 Br  0  0  0  0  0  0  0  0  0  0  0  0
   -1.9315   -0.2256    0.0981 C   0  0  0  0  0  0  0  0  0  0  0  0
   -2.4384    1.0620    0.1924 C   0  0  0  0  0  0  0  0  0  0  0  0
   -1.6771    2.1716    0.2058 N   0  0  0  0  0  0  0  0  0  0  0  0
   -0.3372    1.9948    0.1208 C   0  0  0  0  0  0  0  0  0  0  0  0
    0.6596    3.6266    0.1473 Br  0  0  0  0  0  0  0  0  0  0  0  0
    0.3017    0.7354    0.0204 C   0  0  0  0  0  0  0  0  0  0  0  0
    1.7070    0.5501   -0.0688 C   0  0  0  0  0  0  0  0  0  0  0  0
    2.2780   -0.7184   -0.1658 C   0  0  0  0  0  0  0  0  0  0  0  0
    1.4630   -1.8377   -0.1766 C   0  0  0  0  0  0  0  0  0  0  0  0
    0.0786   -1.6875   -0.0904 C   0  0  0  0  0  0  0  0  0  0  0  0
   -0.5335   -0.4127    0.0093 C   0  0  0  0  0  0  0  0  0  0  0  0
   -3.5071    1.2478    0.2625 H   0  0  0  0  0  0  0  0  0  0  0  0
    2.3848    1.4014   -0.0639 H   0  0  0  0  0  0  0  0  0  0  0  0
    3.3578   -0.8267   -0.2326 H   0  0  0  0  0  0  0  0  0  0  0  0
    1.8989   -2.8310   -0.2519 H   0  0  0  0  0  0  0  0  0  0  0  0
   -0.5202   -2.5961   -0.1027 H   0  0  0  0  0  0  0  0  0  0  0  0
  1  2  1  0
  2  3  2  0
  3  4  1  0
  4  5  2  0
  5  6  1  0
  5  7  1  0
  7  8  2  0
  8  9  1  0
  9 10  2  0
 10 11  1  0
 11 12  2  0
 12  2  1  0
 12  7  1  0
  3 13  1  0
  8 14  1  0
  9 15  1  0
 10 16  1  0
 11 17  1  0
M  END
