
     RDKit          3D

 12 12  0  0  0  0  0  0  0  0999 V2000
   -1.3645   -2.3491    0.0240 F   0  0  0  0  0  0  0  0  0  0  0  0
   -0.6964   -1.1864    0.0121 C   0  0  0  0  0  0  0  0  0  0  0  0
    0.6965   -1.2231    0.0233 C   0  0  0  0  0  0  0  0  0  0  0  0
    1.4107   -0.0269    0.0113 C   0  0  0  0  0  0  0  0  0  0  0  0
    3.2997   -0.0629    0.0263 Br  0  0  0  0  0  0  0  0  0  0  0  0
    0.7429    1.1956   -0.0118 C   0  0  0  0  0  0  0  0  0  0  0  0
   -0.6503    1.2121   -0.0228 C   0  0  0  0  0  0  0  0  0  0  0  0
   -1.2734    2.3994   -0.0450 F   0  0  0  0  0  0  0  0  0  0  0  0
   -1.3806    0.0263   -0.0110 C   0  0  0  0  0  0  0  0  0  0  0  0
   -3.2702    0.0624   -0.0261 Br  0  0  0  0  0  0  0  0  0  0  0  0
    1.2013   -2.1844    0.0413 H   0  0  0  0  0  0  0  0  0  0  0  0
    1.2842    2.1370   -0.0215 H   0  0  0  0  0  0  0  0  0  0  0  0
  1  2  1  0
  2  3  2  0
  3  4  1  0
  4  5  1  0
  4  6  2  0
  6  7  1  0
  7  8  1  0
  7  9  2  0
  9 10  1  0
  9  2  1  0
  3 11  1  0
  6 12  1  0
M  END
