
     RDKit          3D

 15 15  0  0  0  0  0  0  0  0999 V2000
   -2.2258   -0.4300    0.1183 C   0  0  0  0  0  0  0  0  0  0  0  0
   -0.7488   -0.1202    0.0618 C   0  0  0  0  0  0  0  0  0  0  0  0
   -0.2821    1.2047   -0.0078 C   0  0  0  0  0  0  0  0  0  0  0  0
   -1.4461    2.7099   -0.0468 Br  0  0  0  0  0  0  0  0  0  0  0  0
    1.0851    1.4826   -0.0707 C   0  0  0  0  0  0  0  0  0  0  0  0
    2.0179    0.4463   -0.0842 C   0  0  0  0  0  0  0  0  0  0  0  0
    3.6856    0.9044   -0.1595 Cl  0  0  0  0  0  0  0  0  0  0  0  0
    1.5909   -0.8868   -0.0496 C   0  0  0  0  0  0  0  0  0  0  0  0
    2.8795   -2.3016   -0.0921 Br  0  0  0  0  0  0  0  0  0  0  0  0
    0.2083   -1.1657    0.0127 C   0  0  0  0  0  0  0  0  0  0  0  0
   -0.3475   -2.8184    0.0059 Cl  0  0  0  0  0  0  0  0  0  0  0  0
   -2.6056   -0.6206   -0.8903 H   0  0  0  0  0  0  0  0  0  0  0  0
   -2.4325   -1.2983    0.7517 H   0  0  0  0  0  0  0  0  0  0  0  0
   -2.8086    0.3792    0.5656 H   0  0  0  0  0  0  0  0  0  0  0  0
    1.4298    2.5144   -0.1152 H   0  0  0  0  0  0  0  0  0  0  0  0
  1  2  1  0
  2  3  2  0
  3  4  1  0
  3  5  1  0
  5  6  2  0
  6  7  1  0
  6  8  1  0
  8  9  1  0
  8 10  2  0
 10 11  1  0
 10  2  1  0
  1 12  1  0
  1 13  1  0
  1 14  1  0
  5 15  1  0
M  END
