
     RDKit          3D

 12 12  0  0  0  0  0  0  0  0999 V2000
    1.4150    2.2893   -0.0599 F   0  0  0  0  0  0  0  0  0  0  0  0
    0.7218    1.1388   -0.0297 C   0  0  0  0  0  0  0  0  0  0  0  0
    1.4049   -0.0767    0.0083 C   0  0  0  0  0  0  0  0  0  0  0  0
    3.2959   -0.1185    0.0177 Br  0  0  0  0  0  0  0  0  0  0  0  0
    0.6972   -1.2772    0.0398 C   0  0  0  0  0  0  0  0  0  0  0  0
   -0.6990   -1.2562    0.0332 C   0  0  0  0  0  0  0  0  0  0  0  0
   -1.3866   -0.0364   -0.0050 C   0  0  0  0  0  0  0  0  0  0  0  0
   -3.2850   -0.1104   -0.0110 Br  0  0  0  0  0  0  0  0  0  0  0  0
   -0.6754    1.1695   -0.0366 C   0  0  0  0  0  0  0  0  0  0  0  0
   -1.4652    2.7071   -0.0844 Cl  0  0  0  0  0  0  0  0  0  0  0  0
    1.2200   -2.2308    0.0696 H   0  0  0  0  0  0  0  0  0  0  0  0
   -1.2437   -2.1984    0.0580 H   0  0  0  0  0  0  0  0  0  0  0  0
  1  2  1  0
  2  3  2  0
  3  4  1  0
  3  5  1  0
  5  6  2  0
  6  7  1  0
  7  8  1  0
  7  9  2  0
  9 10  1  0
  9  2  1  0
  5 11  1  0
  6 12  1  0
M  END
