
     RDKit          3D

 12 12  0  0  0  0  0  0  0  0999 V2000
   -1.5424    2.2523    0.0070 F   0  0  0  0  0  0  0  0  0  0  0  0
   -0.7945    1.1388    0.0035 C   0  0  0  0  0  0  0  0  0  0  0  0
    0.5937    1.2553    0.0040 C   0  0  0  0  0  0  0  0  0  0  0  0
    1.1455    2.4778    0.0078 F   0  0  0  0  0  0  0  0  0  0  0  0
    1.3959    0.1171    0.0004 C   0  0  0  0  0  0  0  0  0  0  0  0
    3.2800    0.2752    0.0010 Br  0  0  0  0  0  0  0  0  0  0  0  0
    0.7945   -1.1388   -0.0035 C   0  0  0  0  0  0  0  0  0  0  0  0
    1.5424   -2.2523   -0.0070 F   0  0  0  0  0  0  0  0  0  0  0  0
   -0.5937   -1.2553   -0.0040 C   0  0  0  0  0  0  0  0  0  0  0  0
   -1.1455   -2.4778   -0.0078 F   0  0  0  0  0  0  0  0  0  0  0  0
   -1.3959   -0.1171   -0.0004 C   0  0  0  0  0  0  0  0  0  0  0  0
   -3.2800   -0.2752   -0.0010 Br  0  0  0  0  0  0  0  0  0  0  0  0
  1  2  1  0
  2  3  2  0
  3  4  1  0
  3  5  1  0
  5  6  1  0
  5  7  2  0
  7  8  1  0
  7  9  1  0
  9 10  1  0
  9 11  2  0
 11 12  1  0
 11  2  1  0
M  END
