
     RDKit          3D

 16 16  0  0  0  0  0  0  0  0999 V2000
   -3.8356   -0.1164   -0.0297 F   0  0  0  0  0  0  0  0  0  0  0  0
   -2.5530    0.1955    0.2830 C   0  0  0  0  0  0  0  0  0  0  0  0
   -2.4567    0.1313    1.6347 F   0  0  0  0  0  0  0  0  0  0  0  0
   -1.7209   -0.8097   -0.2855 O   0  0  0  0  0  0  0  0  0  0  0  0
   -0.4064   -0.4302   -0.2189 C   0  0  0  0  0  0  0  0  0  0  0  0
    0.3137   -0.7143    0.9439 C   0  0  0  0  0  0  0  0  0  0  0  0
    1.6633   -0.3734    1.0156 C   0  0  0  0  0  0  0  0  0  0  0  0
    2.6405   -0.7406    2.5912 Br  0  0  0  0  0  0  0  0  0  0  0  0
    2.3009    0.2332   -0.0668 C   0  0  0  0  0  0  0  0  0  0  0  0
    1.5847    0.4950   -1.2376 C   0  0  0  0  0  0  0  0  0  0  0  0
    0.2323    0.1557   -1.3175 C   0  0  0  0  0  0  0  0  0  0  0  0
   -0.6967    0.5120   -2.9306 Br  0  0  0  0  0  0  0  0  0  0  0  0
   -2.3335    1.2097   -0.0696 H   0  0  0  0  0  0  0  0  0  0  0  0
   -0.1798   -1.2006    1.7820 H   0  0  0  0  0  0  0  0  0  0  0  0
    3.3546    0.4968   -0.0126 H   0  0  0  0  0  0  0  0  0  0  0  0
    2.0926    0.9559   -2.0815 H   0  0  0  0  0  0  0  0  0  0  0  0
  1  2  1  0
  2  3  1  0
  2  4  1  0
  4  5  1  0
  5  6  2  0
  6  7  1  0
  7  8  1  0
  7  9  2  0
  9 10  1  0
 10 11  2  0
 11 12  1  0
 11  5  1  0
  2 13  1  0
  6 14  1  0
  9 15  1  0
 10 16  1  0
M  END
