
     RDKit          3D

 12 12  0  0  0  0  0  0  0  0999 V2000
   -1.9041    1.9252    0.0002 F   0  0  0  0  0  0  0  0  0  0  0  0
   -0.9686    0.9642    0.0001 C   0  0  0  0  0  0  0  0  0  0  0  0
    0.3712    1.3408    0.0039 C   0  0  0  0  0  0  0  0  0  0  0  0
    1.3543    0.3543    0.0038 C   0  0  0  0  0  0  0  0  0  0  0  0
    3.1783    0.8496    0.0090 Br  0  0  0  0  0  0  0  0  0  0  0  0
    1.0049   -0.9978   -0.0001 C   0  0  0  0  0  0  0  0  0  0  0  0
   -0.3429   -1.3683   -0.0039 C   0  0  0  0  0  0  0  0  0  0  0  0
   -1.3306   -0.3824   -0.0038 C   0  0  0  0  0  0  0  0  0  0  0  0
   -3.1515   -0.8906   -0.0091 Br  0  0  0  0  0  0  0  0  0  0  0  0
    0.6262    2.3957    0.0069 H   0  0  0  0  0  0  0  0  0  0  0  0
    1.7724   -1.7685   -0.0001 H   0  0  0  0  0  0  0  0  0  0  0  0
   -0.6099   -2.4222   -0.0069 H   0  0  0  0  0  0  0  0  0  0  0  0
  1  2  1  0
  2  3  2  0
  3  4  1  0
  4  5  1  0
  4  6  2  0
  6  7  1  0
  7  8  2  0
  8  9  1  0
  8  2  1  0
  3 10  1  0
  6 11  1  0
  7 12  1  0
M  END
