
     RDKit          3D

 16 16  0  0  0  0  0  0  0  0999 V2000
    2.3864    0.9479   -1.4601 F   0  0  0  0  0  0  0  0  0  0  0  0
    1.3564    0.4006   -2.1531 C   0  0  0  0  0  0  0  0  0  0  0  0
    1.8538    0.0314   -3.3599 F   0  0  0  0  0  0  0  0  0  0  0  0
    0.9327   -0.7842   -1.4878 O   0  0  0  0  0  0  0  0  0  0  0  0
    0.2011   -0.4666   -0.3742 C   0  0  0  0  0  0  0  0  0  0  0  0
    0.8776   -0.2248    0.8239 C   0  0  0  0  0  0  0  0  0  0  0  0
    0.1493    0.0594    1.9778 C   0  0  0  0  0  0  0  0  0  0  0  0
    1.0580    0.4029    3.5991 Br  0  0  0  0  0  0  0  0  0  0  0  0
   -1.2451    0.0889    1.9480 C   0  0  0  0  0  0  0  0  0  0  0  0
   -1.9204   -0.1766    0.7540 C   0  0  0  0  0  0  0  0  0  0  0  0
   -1.1978   -0.4629   -0.4063 C   0  0  0  0  0  0  0  0  0  0  0  0
   -2.1540   -0.8349   -1.9998 Br  0  0  0  0  0  0  0  0  0  0  0  0
    0.5599    1.1384   -2.3031 H   0  0  0  0  0  0  0  0  0  0  0  0
    1.9641   -0.2624    0.8501 H   0  0  0  0  0  0  0  0  0  0  0  0
   -1.8141    0.3077    2.8487 H   0  0  0  0  0  0  0  0  0  0  0  0
   -3.0078   -0.1648    0.7425 H   0  0  0  0  0  0  0  0  0  0  0  0
  1  2  1  0
  2  3  1  0
  2  4  1  0
  4  5  1  0
  5  6  2  0
  6  7  1  0
  7  8  1  0
  7  9  2  0
  9 10  1  0
 10 11  2  0
 11 12  1  0
 11  5  1  0
  2 13  1  0
  6 14  1  0
  9 15  1  0
 10 16  1  0
M  END
