
     RDKit          3D

 12 12  0  0  0  0  0  0  0  0999 V2000
   -0.3966    2.6877   -0.0012 F   0  0  0  0  0  0  0  0  0  0  0  0
   -0.2070    1.3601   -0.0005 C   0  0  0  0  0  0  0  0  0  0  0  0
    1.1001    0.8779   -0.0197 C   0  0  0  0  0  0  0  0  0  0  0  0
    1.3202   -0.4978   -0.0193 C   0  0  0  0  0  0  0  0  0  0  0  0
    3.0878   -1.1644   -0.0451 Br  0  0  0  0  0  0  0  0  0  0  0  0
    0.2468   -1.3858   -0.0000 C   0  0  0  0  0  0  0  0  0  0  0  0
   -1.0532   -0.8848    0.0189 C   0  0  0  0  0  0  0  0  0  0  0  0
   -2.0720   -1.7568    0.0373 F   0  0  0  0  0  0  0  0  0  0  0  0
   -1.2919    0.4872    0.0189 C   0  0  0  0  0  0  0  0  0  0  0  0
   -3.0602    1.1540    0.0447 Br  0  0  0  0  0  0  0  0  0  0  0  0
    1.9253    1.5838   -0.0346 H   0  0  0  0  0  0  0  0  0  0  0  0
    0.4006   -2.4609    0.0006 H   0  0  0  0  0  0  0  0  0  0  0  0
  1  2  1  0
  2  3  2  0
  3  4  1  0
  4  5  1  0
  4  6  2  0
  6  7  1  0
  7  8  1  0
  7  9  2  0
  9 10  1  0
  9  2  1  0
  3 11  1  0
  6 12  1  0
M  END
