
     RDKit          3D

 12 12  0  0  0  0  0  0  0  0999 V2000
   -0.9449    2.2972   -0.0835 H   0  0  0  0  0  0  0  0  0  0  0  0
   -0.5354    1.2910   -0.0472 C   0  0  0  0  0  0  0  0  0  0  0  0
    0.8480    1.1117    0.0232 C   0  0  0  0  0  0  0  0  0  0  0  0
    1.5013    1.9802    0.0409 H   0  0  0  0  0  0  0  0  0  0  0  0
    1.3766   -0.1784    0.0700 C   0  0  0  0  0  0  0  0  0  0  0  0
    3.2489   -0.4210    0.1652 Br  0  0  0  0  0  0  0  0  0  0  0  0
    0.5354   -1.2910    0.0472 C   0  0  0  0  0  0  0  0  0  0  0  0
    0.9449   -2.2972    0.0835 H   0  0  0  0  0  0  0  0  0  0  0  0
   -0.8480   -1.1117   -0.0232 C   0  0  0  0  0  0  0  0  0  0  0  0
   -1.5013   -1.9802   -0.0409 H   0  0  0  0  0  0  0  0  0  0  0  0
   -1.3766    0.1784   -0.0700 C   0  0  0  0  0  0  0  0  0  0  0  0
   -3.2489    0.4210   -0.1652 Br  0  0  0  0  0  0  0  0  0  0  0  0
  1  2  1  0
  2  3  2  0
  3  4  1  0
  3  5  1  0
  5  6  1  0
  5  7  2  0
  7  8  1  0
  7  9  1  0
  9 10  1  0
  9 11  2  0
 11 12  1  0
 11  2  1  0
M  ISO  4   1   2   4   2   8   2  10   2
M  END
