
     RDKit          3D

 24 24  0  0  0  0  0  0  0  0999 V2000
    2.6709   -1.1837    0.3135 C   0  0  0  0  0  0  0  0  0  0  0  0
    1.2955   -0.5702    0.1610 C   0  0  0  0  0  0  0  0  0  0  0  0
    1.1614    0.8197   -0.0928 C   0  0  0  0  0  0  0  0  0  0  0  0
    2.3919    1.6978   -0.1731 C   0  0  0  0  0  0  0  0  0  0  0  0
   -0.1299    1.3617   -0.3013 C   0  0  0  0  0  0  0  0  0  0  0  0
   -0.3009    3.1960   -0.8517 Br  0  0  0  0  0  0  0  0  0  0  0  0
   -1.2955    0.5703   -0.1610 C   0  0  0  0  0  0  0  0  0  0  0  0
   -2.6709    1.1837   -0.3135 C   0  0  0  0  0  0  0  0  0  0  0  0
   -1.1614   -0.8197    0.0929 C   0  0  0  0  0  0  0  0  0  0  0  0
   -2.3919   -1.6978    0.1731 C   0  0  0  0  0  0  0  0  0  0  0  0
    0.1299   -1.3617    0.3013 C   0  0  0  0  0  0  0  0  0  0  0  0
    0.3009   -3.1959    0.8517 Br  0  0  0  0  0  0  0  0  0  0  0  0
    2.7082   -2.2126   -0.0552 H   0  0  0  0  0  0  0  0  0  0  0  0
    3.4186   -0.6611   -0.2910 H   0  0  0  0  0  0  0  0  0  0  0  0
    2.9785   -1.1617    1.3633 H   0  0  0  0  0  0  0  0  0  0  0  0
    3.1950    1.3326    0.4744 H   0  0  0  0  0  0  0  0  0  0  0  0
    2.7547    1.7438   -1.2043 H   0  0  0  0  0  0  0  0  0  0  0  0
    2.2014    2.7111    0.1913 H   0  0  0  0  0  0  0  0  0  0  0  0
   -3.4186    0.6611    0.2910 H   0  0  0  0  0  0  0  0  0  0  0  0
   -2.7082    2.2126    0.0552 H   0  0  0  0  0  0  0  0  0  0  0  0
   -2.9785    1.1617   -1.3633 H   0  0  0  0  0  0  0  0  0  0  0  0
   -2.2014   -2.7111   -0.1913 H   0  0  0  0  0  0  0  0  0  0  0  0
   -2.7547   -1.7438    1.2043 H   0  0  0  0  0  0  0  0  0  0  0  0
   -3.1950   -1.3326   -0.4744 H   0  0  0  0  0  0  0  0  0  0  0  0
  1  2  1  0
  2  3  2  0
  3  4  1  0
  3  5  1  0
  5  6  1  0
  5  7  2  0
  7  8  1  0
  7  9  1  0
  9 10  1  0
  9 11  2  0
 11 12  1  0
 11  2  1  0
  1 13  1  0
  1 14  1  0
  1 15  1  0
  4 16  1  0
  4 17  1  0
  4 18  1  0
  8 19  1  0
  8 20  1  0
  8 21  1  0
 10 22  1  0
 10 23  1  0
 10 24  1  0
M  END
