
     RDKit          3D

 12 12  0  0  0  0  0  0  0  0999 V2000
   -3.2566    0.3859    0.0743 Br  0  0  0  0  0  0  0  0  0  0  0  0
   -1.3799    0.1635    0.0315 C   0  0  0  0  0  0  0  0  0  0  0  0
   -0.5500    1.2847    0.0512 C   0  0  0  0  0  0  0  0  0  0  0  0
    0.8366    1.1203    0.0195 C   0  0  0  0  0  0  0  0  0  0  0  0
    1.3799   -0.1635   -0.0315 C   0  0  0  0  0  0  0  0  0  0  0  0
    3.2566   -0.3859   -0.0743 Br  0  0  0  0  0  0  0  0  0  0  0  0
    0.5500   -1.2847   -0.0512 C   0  0  0  0  0  0  0  0  0  0  0  0
   -0.8366   -1.1203   -0.0195 C   0  0  0  0  0  0  0  0  0  0  0  0
   -0.9709    2.2860    0.0909 H   0  0  0  0  0  0  0  0  0  0  0  0
    1.4811    1.9955    0.0349 H   0  0  0  0  0  0  0  0  0  0  0  0
    0.9709   -2.2860   -0.0909 H   0  0  0  0  0  0  0  0  0  0  0  0
   -1.4811   -1.9955   -0.0349 H   0  0  0  0  0  0  0  0  0  0  0  0
  1  2  1  0
  2  3  2  0
  3  4  1  0
  4  5  2  0
  5  6  1  0
  5  7  1  0
  7  8  2  0
  8  2  1  0
  3  9  1  0
  4 10  1  0
  7 11  1  0
  8 12  1  0
M  END
