
     RDKit          3D

 20 20  0  0  0  0  0  0  0  0999 V2000
   -3.6718    0.1776    0.5906 C   0  0  0  0  0  0  0  0  0  0  0  0
   -2.6845   -0.7386    0.1354 O   0  0  0  0  0  0  0  0  0  0  0  0
   -1.3774   -0.3306    0.1509 C   0  0  0  0  0  0  0  0  0  0  0  0
   -0.9448    0.9244    0.5830 C   0  0  0  0  0  0  0  0  0  0  0  0
    0.4186    1.2493    0.5608 C   0  0  0  0  0  0  0  0  0  0  0  0
    0.9182    2.9825    1.1681 Br  0  0  0  0  0  0  0  0  0  0  0  0
    1.3774    0.3306    0.1079 C   0  0  0  0  0  0  0  0  0  0  0  0
    2.6845    0.7386    0.1233 O   0  0  0  0  0  0  0  0  0  0  0  0
    3.6718   -0.1776   -0.3318 C   0  0  0  0  0  0  0  0  0  0  0  0
    0.9448   -0.9244   -0.3243 C   0  0  0  0  0  0  0  0  0  0  0  0
   -0.4186   -1.2493   -0.3021 C   0  0  0  0  0  0  0  0  0  0  0  0
   -0.9182   -2.9825   -0.9093 Br  0  0  0  0  0  0  0  0  0  0  0  0
   -3.6967    1.0746   -0.0369 H   0  0  0  0  0  0  0  0  0  0  0  0
   -3.5166    0.4338    1.6437 H   0  0  0  0  0  0  0  0  0  0  0  0
   -4.6463   -0.3131    0.5079 H   0  0  0  0  0  0  0  0  0  0  0  0
   -1.6469    1.6694    0.9423 H   0  0  0  0  0  0  0  0  0  0  0  0
    3.5166   -0.4338   -1.3849 H   0  0  0  0  0  0  0  0  0  0  0  0
    4.6463    0.3131   -0.2491 H   0  0  0  0  0  0  0  0  0  0  0  0
    3.6967   -1.0746    0.2957 H   0  0  0  0  0  0  0  0  0  0  0  0
    1.6469   -1.6693   -0.6835 H   0  0  0  0  0  0  0  0  0  0  0  0
  1  2  1  0
  2  3  1  0
  3  4  2  0
  4  5  1  0
  5  6  1  0
  5  7  2  0
  7  8  1  0
  8  9  1  0
  7 10  1  0
 10 11  2  0
 11 12  1  0
 11  3  1  0
  1 13  1  0
  1 14  1  0
  1 15  1  0
  4 16  1  0
  9 17  1  0
  9 18  1  0
  9 19  1  0
 10 20  1  0
M  END
