
     RDKit          3D

 12 12  0  0  0  0  0  0  0  0999 V2000
    1.0507    2.4742    0.1471 F   0  0  0  0  0  0  0  0  0  0  0  0
    0.5404    1.2334    0.0738 C   0  0  0  0  0  0  0  0  0  0  0  0
    1.3998    0.1353    0.0439 C   0  0  0  0  0  0  0  0  0  0  0  0
    3.2746    0.3780    0.1058 Br  0  0  0  0  0  0  0  0  0  0  0  0
    0.8828   -1.1570   -0.0321 C   0  0  0  0  0  0  0  0  0  0  0  0
   -0.5000   -1.3460   -0.0781 C   0  0  0  0  0  0  0  0  0  0  0  0
   -1.3646   -0.2442   -0.0482 C   0  0  0  0  0  0  0  0  0  0  0  0
   -3.2292   -0.6026   -0.1154 Br  0  0  0  0  0  0  0  0  0  0  0  0
   -0.8449    1.0539    0.0281 C   0  0  0  0  0  0  0  0  0  0  0  0
   -1.8586    2.4542    0.0684 Cl  0  0  0  0  0  0  0  0  0  0  0  0
    1.5441   -2.0205   -0.0560 H   0  0  0  0  0  0  0  0  0  0  0  0
   -0.8952   -2.3586   -0.1374 H   0  0  0  0  0  0  0  0  0  0  0  0
  1  2  1  0
  2  3  2  0
  3  4  1  0
  3  5  1  0
  5  6  2  0
  6  7  1  0
  7  8  1  0
  7  9  2  0
  9 10  1  0
  9  2  1  0
  5 11  1  0
  6 12  1  0
M  END
