
     RDKit          3D

 17 18  0  0  0  0  0  0  0  0999 V2000
   -1.8774    3.0423    0.3285 Br  0  0  0  0  0  0  0  0  0  0  0  0
   -1.5408    1.1795    0.1611 C   0  0  0  0  0  0  0  0  0  0  0  0
   -2.6417    0.3362    0.1372 C   0  0  0  0  0  0  0  0  0  0  0  0
   -2.5624   -1.0024    0.0237 N   0  0  0  0  0  0  0  0  0  0  0  0
   -1.3210   -1.5353   -0.0717 C   0  0  0  0  0  0  0  0  0  0  0  0
   -1.3096   -3.4412   -0.2293 Br  0  0  0  0  0  0  0  0  0  0  0  0
   -0.1215   -0.7836   -0.0595 C   0  0  0  0  0  0  0  0  0  0  0  0
    1.1803   -1.3426   -0.1596 C   0  0  0  0  0  0  0  0  0  0  0  0
    2.3264   -0.5485   -0.1417 C   0  0  0  0  0  0  0  0  0  0  0  0
    2.2059    0.8259   -0.0234 C   0  0  0  0  0  0  0  0  0  0  0  0
    0.9403    1.4043    0.0767 C   0  0  0  0  0  0  0  0  0  0  0  0
   -0.2444    0.6257    0.0617 C   0  0  0  0  0  0  0  0  0  0  0  0
   -3.6549    0.7229    0.2111 H   0  0  0  0  0  0  0  0  0  0  0  0
    1.3217   -2.4174   -0.2540 H   0  0  0  0  0  0  0  0  0  0  0  0
    3.3090   -1.0071   -0.2202 H   0  0  0  0  0  0  0  0  0  0  0  0
    3.0937    1.4535   -0.0085 H   0  0  0  0  0  0  0  0  0  0  0  0
    0.8963    2.4878    0.1679 H   0  0  0  0  0  0  0  0  0  0  0  0
  1  2  1  0
  2  3  2  0
  3  4  1  0
  4  5  2  0
  5  6  1  0
  5  7  1  0
  7  8  2  0
  8  9  1  0
  9 10  2  0
 10 11  1  0
 11 12  2  0
 12  2  1  0
 12  7  1  0
  3 13  1  0
  8 14  1  0
  9 15  1  0
 10 16  1  0
 11 17  1  0
M  END
