
     RDKit          3D

 12 12  0  0  0  0  0  0  0  0999 V2000
   -0.2644    2.7402    0.1879 F   0  0  0  0  0  0  0  0  0  0  0  0
   -0.1315    1.4099    0.0966 C   0  0  0  0  0  0  0  0  0  0  0  0
    1.1451    0.8604    0.0320 C   0  0  0  0  0  0  0  0  0  0  0  0
    1.2830   -0.5230   -0.0629 C   0  0  0  0  0  0  0  0  0  0  0  0
    3.0102   -1.2857   -0.1515 Br  0  0  0  0  0  0  0  0  0  0  0  0
    0.1594   -1.3521   -0.0933 C   0  0  0  0  0  0  0  0  0  0  0  0
   -1.1149   -0.7836   -0.0276 C   0  0  0  0  0  0  0  0  0  0  0  0
   -2.6342   -1.9093   -0.0690 Br  0  0  0  0  0  0  0  0  0  0  0  0
   -1.2602    0.5983    0.0674 C   0  0  0  0  0  0  0  0  0  0  0  0
   -2.4773    1.1583    0.1314 F   0  0  0  0  0  0  0  0  0  0  0  0
    2.0090    1.5174    0.0567 H   0  0  0  0  0  0  0  0  0  0  0  0
    0.2758   -2.4308   -0.1676 H   0  0  0  0  0  0  0  0  0  0  0  0
  1  2  1  0
  2  3  2  0
  3  4  1  0
  4  5  1  0
  4  6  2  0
  6  7  1  0
  7  8  1  0
  7  9  2  0
  9 10  1  0
  9  2  1  0
  3 11  1  0
  6 12  1  0
M  END
