
     RDKit          3D

 18 18  0  0  0  0  0  0  0  0999 V2000
   -2.3627   -1.0937   -0.6406 C   0  0  0  0  0  0  0  0  0  0  0  0
   -1.1963   -0.2677   -0.1740 C   0  0  0  0  0  0  0  0  0  0  0  0
    0.1090   -0.7438   -0.3878 C   0  0  0  0  0  0  0  0  0  0  0  0
    1.2378   -0.0154    0.0264 C   0  0  0  0  0  0  0  0  0  0  0  0
    2.6077   -0.5787   -0.2315 C   0  0  0  0  0  0  0  0  0  0  0  0
    1.0404    1.2151    0.6675 C   0  0  0  0  0  0  0  0  0  0  0  0
    2.4948    2.2801    1.2677 Br  0  0  0  0  0  0  0  0  0  0  0  0
   -0.2496    1.7032    0.8881 C   0  0  0  0  0  0  0  0  0  0  0  0
   -1.3600    0.9664    0.4700 C   0  0  0  0  0  0  0  0  0  0  0  0
   -3.0784    1.7027    0.8090 Br  0  0  0  0  0  0  0  0  0  0  0  0
   -2.0315   -2.0218   -1.1190 H   0  0  0  0  0  0  0  0  0  0  0  0
   -2.9970   -1.3736    0.2065 H   0  0  0  0  0  0  0  0  0  0  0  0
   -2.9529   -0.5408   -1.3783 H   0  0  0  0  0  0  0  0  0  0  0  0
    0.2494   -1.7020   -0.8875 H   0  0  0  0  0  0  0  0  0  0  0  0
    3.1402   -0.7377    0.7116 H   0  0  0  0  0  0  0  0  0  0  0  0
    2.5543   -1.5466   -0.7416 H   0  0  0  0  0  0  0  0  0  0  0  0
    3.1844    0.0951   -0.8731 H   0  0  0  0  0  0  0  0  0  0  0  0
   -0.3897    2.6593    1.3866 H   0  0  0  0  0  0  0  0  0  0  0  0
  1  2  1  0
  2  3  2  0
  3  4  1  0
  4  5  1  0
  4  6  2  0
  6  7  1  0
  6  8  1  0
  8  9  2  0
  9 10  1  0
  9  2  1  0
  1 11  1  0
  1 12  1  0
  1 13  1  0
  3 14  1  0
  5 15  1  0
  5 16  1  0
  5 17  1  0
  8 18  1  0
M  END
