
     RDKit          3D

 24 25  0  0  0  0  0  0  0  0999 V2000
   -4.0688   -0.0298    0.1350 C   0  0  0  0  0  0  0  0  0  0  0  0
   -2.5776    0.1700    0.1099 C   0  0  0  0  0  0  0  0  0  0  0  0
   -2.0771    1.4612    0.2593 C   0  0  0  0  0  0  0  0  0  0  0  0
   -0.7023    1.6978    0.2429 C   0  0  0  0  0  0  0  0  0  0  0  0
    0.2471    0.6617    0.0769 C   0  0  0  0  0  0  0  0  0  0  0  0
    1.6609    0.8862    0.0576 C   0  0  0  0  0  0  0  0  0  0  0  0
    2.3628    2.6645    0.2630 Br  0  0  0  0  0  0  0  0  0  0  0  0
    2.5776   -0.1700   -0.1099 C   0  0  0  0  0  0  0  0  0  0  0  0
    4.0688    0.0298   -0.1350 C   0  0  0  0  0  0  0  0  0  0  0  0
    2.0771   -1.4612   -0.2594 C   0  0  0  0  0  0  0  0  0  0  0  0
    0.7023   -1.6978   -0.2429 C   0  0  0  0  0  0  0  0  0  0  0  0
   -0.2471   -0.6617   -0.0769 C   0  0  0  0  0  0  0  0  0  0  0  0
   -1.6609   -0.8862   -0.0576 C   0  0  0  0  0  0  0  0  0  0  0  0
   -2.3628   -2.6645   -0.2630 Br  0  0  0  0  0  0  0  0  0  0  0  0
   -4.3556   -0.6835    0.9649 H   0  0  0  0  0  0  0  0  0  0  0  0
   -4.4162   -0.4544   -0.8123 H   0  0  0  0  0  0  0  0  0  0  0  0
   -4.5987    0.9189    0.2754 H   0  0  0  0  0  0  0  0  0  0  0  0
   -2.7512    2.3057    0.3913 H   0  0  0  0  0  0  0  0  0  0  0  0
   -0.3875    2.7318    0.3656 H   0  0  0  0  0  0  0  0  0  0  0  0
    4.3556    0.6836   -0.9649 H   0  0  0  0  0  0  0  0  0  0  0  0
    4.5987   -0.9189   -0.2755 H   0  0  0  0  0  0  0  0  0  0  0  0
    4.4162    0.4544    0.8123 H   0  0  0  0  0  0  0  0  0  0  0  0
    2.7512   -2.3057   -0.3913 H   0  0  0  0  0  0  0  0  0  0  0  0
    0.3875   -2.7318   -0.3656 H   0  0  0  0  0  0  0  0  0  0  0  0
  1  2  1  0
  2  3  2  0
  3  4  1  0
  4  5  2  0
  5  6  1  0
  6  7  1  0
  6  8  2  0
  8  9  1  0
  8 10  1  0
 10 11  2  0
 11 12  1  0
 12 13  2  0
 13 14  1  0
 13  2  1  0
 12  5  1  0
  1 15  1  0
  1 16  1  0
  1 17  1  0
  3 18  1  0
  4 19  1  0
  9 20  1  0
  9 21  1  0
  9 22  1  0
 10 23  1  0
 11 24  1  0
M  END
