
     RDKit          3D

 12 12  0  0  0  0  0  0  0  0999 V2000
   -2.5305    1.0667    0.0078 F   0  0  0  0  0  0  0  0  0  0  0  0
   -1.2933    0.5488    0.0040 C   0  0  0  0  0  0  0  0  0  0  0  0
   -1.1011   -0.8322    0.0035 C   0  0  0  0  0  0  0  0  0  0  0  0
   -2.5825   -2.0077    0.0083 Br  0  0  0  0  0  0  0  0  0  0  0  0
    0.1916   -1.3625   -0.0005 C   0  0  0  0  0  0  0  0  0  0  0  0
    1.2879   -0.4962   -0.0040 C   0  0  0  0  0  0  0  0  0  0  0  0
    3.0361   -1.2175   -0.0093 Br  0  0  0  0  0  0  0  0  0  0  0  0
    1.0917    0.8843   -0.0035 C   0  0  0  0  0  0  0  0  0  0  0  0
    2.1382    1.7233   -0.0068 F   0  0  0  0  0  0  0  0  0  0  0  0
   -0.1973    1.4026    0.0005 C   0  0  0  0  0  0  0  0  0  0  0  0
   -0.3840    2.7302    0.0009 F   0  0  0  0  0  0  0  0  0  0  0  0
    0.3431   -2.4397   -0.0008 H   0  0  0  0  0  0  0  0  0  0  0  0
  1  2  1  0
  2  3  2  0
  3  4  1  0
  3  5  1  0
  5  6  2  0
  6  7  1  0
  6  8  1  0
  8  9  1  0
  8 10  2  0
 10 11  1  0
 10  2  1  0
  5 12  1  0
M  END
