
     RDKit          3D

 12 12  0  0  0  0  0  0  0  0999 V2000
   -2.5080    1.1141   -0.1017 F   0  0  0  0  0  0  0  0  0  0  0  0
   -1.2817    0.5730   -0.0517 C   0  0  0  0  0  0  0  0  0  0  0  0
   -1.1104   -0.8081   -0.1378 C   0  0  0  0  0  0  0  0  0  0  0  0
   -2.6052   -1.9509   -0.3272 Br  0  0  0  0  0  0  0  0  0  0  0  0
    0.1710   -1.3626   -0.0848 C   0  0  0  0  0  0  0  0  0  0  0  0
    1.2771   -0.5205    0.0551 C   0  0  0  0  0  0  0  0  0  0  0  0
    3.0100   -1.2745    0.1265 Br  0  0  0  0  0  0  0  0  0  0  0  0
    1.1018    0.8602    0.1409 C   0  0  0  0  0  0  0  0  0  0  0  0
    2.1579    1.6761    0.2753 F   0  0  0  0  0  0  0  0  0  0  0  0
   -0.1760    1.4027    0.0873 C   0  0  0  0  0  0  0  0  0  0  0  0
   -0.3426    2.7304    0.1698 F   0  0  0  0  0  0  0  0  0  0  0  0
    0.3062   -2.4399   -0.1518 H   0  0  0  0  0  0  0  0  0  0  0  0
  1  2  1  0
  2  3  2  0
  3  4  1  0
  3  5  1  0
  5  6  2  0
  6  7  1  0
  6  8  1  0
  8  9  1  0
  8 10  2  0
 10 11  1  0
 10  2  1  0
  5 12  1  0
M  END
