
     RDKit          3D

 20 21  0  0  0  0  0  0  0  0999 V2000
    3.8844    0.0111    0.3723 O   0  0  0  0  0  0  0  0  0  0  0  0
    2.5260    0.1622    0.3184 C   0  0  0  0  0  0  0  0  0  0  0  0
    2.0118    1.3310    0.8458 C   0  0  0  0  0  0  0  0  0  0  0  0
    0.6351    1.5466    0.8221 C   0  0  0  0  0  0  0  0  0  0  0  0
   -0.2682    0.6025    0.2716 C   0  0  0  0  0  0  0  0  0  0  0  0
   -1.6770    0.8016    0.2367 C   0  0  0  0  0  0  0  0  0  0  0  0
   -2.4954    2.3831    0.9387 Br  0  0  0  0  0  0  0  0  0  0  0  0
   -2.5260   -0.1622   -0.3184 C   0  0  0  0  0  0  0  0  0  0  0  0
   -3.8844   -0.0111   -0.3722 O   0  0  0  0  0  0  0  0  0  0  0  0
   -2.0118   -1.3310   -0.8458 C   0  0  0  0  0  0  0  0  0  0  0  0
   -0.6351   -1.5466   -0.8221 C   0  0  0  0  0  0  0  0  0  0  0  0
    0.2682   -0.6025   -0.2716 C   0  0  0  0  0  0  0  0  0  0  0  0
    1.6770   -0.8016   -0.2367 C   0  0  0  0  0  0  0  0  0  0  0  0
    2.4954   -2.3830   -0.9387 Br  0  0  0  0  0  0  0  0  0  0  0  0
    4.0989   -0.8496   -0.0316 H   0  0  0  0  0  0  0  0  0  0  0  0
    2.6761    2.0760    1.2756 H   0  0  0  0  0  0  0  0  0  0  0  0
    0.2792    2.4818    1.2493 H   0  0  0  0  0  0  0  0  0  0  0  0
   -4.0989    0.8496    0.0316 H   0  0  0  0  0  0  0  0  0  0  0  0
   -2.6761   -2.0760   -1.2756 H   0  0  0  0  0  0  0  0  0  0  0  0
   -0.2792   -2.4818   -1.2493 H   0  0  0  0  0  0  0  0  0  0  0  0
  1  2  1  0
  2  3  2  0
  3  4  1  0
  4  5  2  0
  5  6  1  0
  6  7  1  0
  6  8  2  0
  8  9  1  0
  8 10  1  0
 10 11  2  0
 11 12  1  0
 12 13  2  0
 13 14  1  0
 13  2  1  0
 12  5  1  0
  1 15  1  0
  3 16  1  0
  4 17  1  0
  9 18  1  0
 10 19  1  0
 11 20  1  0
M  END
