
     RDKit          3D

 16 16  0  0  0  0  0  0  0  0999 V2000
   -2.5132   -2.0034    0.9390 O   0  0  0  0  0  0  0  0  0  0  0  0
   -2.2407   -1.4002   -0.1051 N   0  0  0  0  0  4  0  0  0  0  0  0
   -2.7864   -1.5500   -1.2040 O   0  0  0  0  0  1  0  0  0  0  0  0
   -1.1392   -0.4679   -0.0449 C   0  0  0  0  0  0  0  0  0  0  0  0
    0.1549   -0.9982   -0.0221 C   0  0  0  0  0  0  0  0  0  0  0  0
    1.2278   -0.1022    0.0268 C   0  0  0  0  0  0  0  0  0  0  0  0
    2.5607   -0.6584    0.0404 N   0  0  0  0  0  4  0  0  0  0  0  0
    3.1903   -0.6264   -1.0228 O   0  0  0  0  0  0  0  0  0  0  0  0
    2.9400   -1.1612    1.1042 O   0  0  0  0  0  1  0  0  0  0  0  0
    1.0323    1.2814    0.0622 C   0  0  0  0  0  0  0  0  0  0  0  0
    2.4529    2.5336    0.1644 Br  0  0  0  0  0  0  0  0  0  0  0  0
   -0.2768    1.7830    0.0433 C   0  0  0  0  0  0  0  0  0  0  0  0
   -1.3724    0.9099   -0.0107 C   0  0  0  0  0  0  0  0  0  0  0  0
   -3.1079    1.6745   -0.0042 Br  0  0  0  0  0  0  0  0  0  0  0  0
    0.3217   -2.0738   -0.0430 H   0  0  0  0  0  0  0  0  0  0  0  0
   -0.4441    2.8593    0.0763 H   0  0  0  0  0  0  0  0  0  0  0  0
  1  2  2  0
  2  3  1  0
  2  4  1  0
  4  5  2  0
  5  6  1  0
  6  7  1  0
  7  8  2  0
  7  9  1  0
  6 10  2  0
 10 11  1  0
 10 12  1  0
 12 13  2  0
 13 14  1  0
 13  4  1  0
  5 15  1  0
 12 16  1  0
M  CHG  4   2   1   3  -1   7   1   9  -1
M  END
