
     RDKit          3D

 20 20  0  0  0  0  0  0  0  0999 V2000
    2.5357    1.4033   -0.5657 C   0  0  0  0  0  0  0  0  0  0  0  0
    2.4341    0.2325    0.2331 O   0  0  0  0  0  0  0  0  0  0  0  0
    1.1931   -0.3197    0.4162 C   0  0  0  0  0  0  0  0  0  0  0  0
    0.0082    0.1926   -0.1328 C   0  0  0  0  0  0  0  0  0  0  0  0
   -1.2251   -0.4329    0.1027 C   0  0  0  0  0  0  0  0  0  0  0  0
   -2.4240    0.0050   -0.3968 O   0  0  0  0  0  0  0  0  0  0  0  0
   -2.4262    1.1709   -1.2090 C   0  0  0  0  0  0  0  0  0  0  0  0
   -1.2597   -1.5867    0.9005 C   0  0  0  0  0  0  0  0  0  0  0  0
   -2.8895   -2.4945    1.2682 Br  0  0  0  0  0  0  0  0  0  0  0  0
   -0.0897   -2.1077    1.4531 C   0  0  0  0  0  0  0  0  0  0  0  0
    1.1295   -1.4748    1.2102 C   0  0  0  0  0  0  0  0  0  0  0  0
    2.6884   -2.2332    1.9913 Br  0  0  0  0  0  0  0  0  0  0  0  0
    2.2129    1.2088   -1.5937 H   0  0  0  0  0  0  0  0  0  0  0  0
    1.9743    2.2327   -0.1233 H   0  0  0  0  0  0  0  0  0  0  0  0
    3.5897    1.6955   -0.5981 H   0  0  0  0  0  0  0  0  0  0  0  0
    0.0461    1.0829   -0.7466 H   0  0  0  0  0  0  0  0  0  0  0  0
   -2.0745    2.0430   -0.6482 H   0  0  0  0  0  0  0  0  0  0  0  0
   -1.8359    1.0191   -2.1186 H   0  0  0  0  0  0  0  0  0  0  0  0
   -3.4595    1.3653   -1.5121 H   0  0  0  0  0  0  0  0  0  0  0  0
   -0.1277   -3.0019    2.0697 H   0  0  0  0  0  0  0  0  0  0  0  0
  1  2  1  0
  2  3  1  0
  3  4  2  0
  4  5  1  0
  5  6  1  0
  6  7  1  0
  5  8  2  0
  8  9  1  0
  8 10  1  0
 10 11  2  0
 11 12  1  0
 11  3  1  0
  1 13  1  0
  1 14  1  0
  1 15  1  0
  4 16  1  0
  7 17  1  0
  7 18  1  0
  7 19  1  0
 10 20  1  0
M  END
