
     RDKit          3D

 16 16  0  0  0  0  0  0  0  0999 V2000
    2.5779    0.9029    0.3333 C   0  0  0  0  0  0  0  0  0  0  0  0
    1.8132    0.1307   -0.5835 O   0  0  0  0  0  0  0  0  0  0  0  0
    0.4838   -0.0635   -0.3153 C   0  0  0  0  0  0  0  0  0  0  0  0
   -0.2338   -0.8333   -1.2490 C   0  0  0  0  0  0  0  0  0  0  0  0
    0.6080   -1.5581   -2.7940 Br  0  0  0  0  0  0  0  0  0  0  0  0
   -1.5984   -1.0973   -1.0785 C   0  0  0  0  0  0  0  0  0  0  0  0
   -2.2623   -0.5902    0.0353 C   0  0  0  0  0  0  0  0  0  0  0  0
   -4.1046   -0.9485    0.2626 Br  0  0  0  0  0  0  0  0  0  0  0  0
   -1.5678    0.1723    0.9674 C   0  0  0  0  0  0  0  0  0  0  0  0
   -2.1951    0.6673    2.0455 F   0  0  0  0  0  0  0  0  0  0  0  0
   -0.2095    0.4331    0.7943 C   0  0  0  0  0  0  0  0  0  0  0  0
    0.4059    1.1750    1.7276 F   0  0  0  0  0  0  0  0  0  0  0  0
    3.6038    0.9471   -0.0452 H   0  0  0  0  0  0  0  0  0  0  0  0
    2.6109    0.4273    1.3187 H   0  0  0  0  0  0  0  0  0  0  0  0
    2.2043    1.9301    0.3921 H   0  0  0  0  0  0  0  0  0  0  0  0
   -2.1364   -1.6946   -1.8112 H   0  0  0  0  0  0  0  0  0  0  0  0
  1  2  1  0
  2  3  1  0
  3  4  2  0
  4  5  1  0
  4  6  1  0
  6  7  2  0
  7  8  1  0
  7  9  1  0
  9 10  1  0
  9 11  2  0
 11 12  1  0
 11  3  1  0
  1 13  1  0
  1 14  1  0
  1 15  1  0
  6 16  1  0
M  END
