
     RDKit          3D

 19 20  0  0  0  0  0  0  0  0999 V2000
    3.6352    0.5778   -0.2823 O   0  0  0  0  0  0  0  0  0  0  0  0
    2.3279    0.1793   -0.2102 C   0  0  0  0  0  0  0  0  0  0  0  0
    2.0808   -1.1721   -0.3938 C   0  0  0  0  0  0  0  0  0  0  0  0
    0.7725   -1.6453   -0.3332 C   0  0  0  0  0  0  0  0  0  0  0  0
   -0.3017   -0.7745   -0.0889 C   0  0  0  0  0  0  0  0  0  0  0  0
   -1.6104   -1.2820   -0.0335 C   0  0  0  0  0  0  0  0  0  0  0  0
   -2.6902   -0.4367    0.2075 C   0  0  0  0  0  0  0  0  0  0  0  0
   -4.4416   -1.1441    0.2772 Br  0  0  0  0  0  0  0  0  0  0  0  0
   -2.4872    0.9226    0.3968 C   0  0  0  0  0  0  0  0  0  0  0  0
   -1.1902    1.4407    0.3443 C   0  0  0  0  0  0  0  0  0  0  0  0
   -0.0648    0.6133    0.1014 C   0  0  0  0  0  0  0  0  0  0  0  0
    1.2777    1.0739    0.0354 C   0  0  0  0  0  0  0  0  0  0  0  0
    1.7217    2.9170    0.2748 Br  0  0  0  0  0  0  0  0  0  0  0  0
    3.6543    1.5410   -0.1354 H   0  0  0  0  0  0  0  0  0  0  0  0
    2.9033   -1.8564   -0.5836 H   0  0  0  0  0  0  0  0  0  0  0  0
    0.5988   -2.7100   -0.4800 H   0  0  0  0  0  0  0  0  0  0  0  0
   -1.7882   -2.3456   -0.1797 H   0  0  0  0  0  0  0  0  0  0  0  0
   -3.3240    1.5900    0.5855 H   0  0  0  0  0  0  0  0  0  0  0  0
   -1.0740    2.5112    0.4979 H   0  0  0  0  0  0  0  0  0  0  0  0
  1  2  1  0
  2  3  2  0
  3  4  1  0
  4  5  2  0
  5  6  1  0
  6  7  2  0
  7  8  1  0
  7  9  1  0
  9 10  2  0
 10 11  1  0
 11 12  2  0
 12 13  1  0
 12  2  1  0
 11  5  1  0
  1 14  1  0
  3 15  1  0
  4 16  1  0
  6 17  1  0
  9 18  1  0
 10 19  1  0
M  END
