
     RDKit          3D

 19 20  0  0  0  0  0  0  0  0999 V2000
   -3.5435    0.9858   -0.3167 O   0  0  0  0  0  0  0  0  0  0  0  0
   -2.2954    0.4418   -0.1772 C   0  0  0  0  0  0  0  0  0  0  0  0
   -2.2352   -0.9287    0.0208 C   0  0  0  0  0  0  0  0  0  0  0  0
   -0.9964   -1.5469    0.1705 C   0  0  0  0  0  0  0  0  0  0  0  0
    0.1941   -0.8036    0.1240 C   0  0  0  0  0  0  0  0  0  0  0  0
    1.4285   -1.4560    0.2783 C   0  0  0  0  0  0  0  0  0  0  0  0
    2.6211   -0.7386    0.2356 C   0  0  0  0  0  0  0  0  0  0  0  0
    4.2692   -1.6397    0.4459 Br  0  0  0  0  0  0  0  0  0  0  0  0
    2.6058    0.6347    0.0395 C   0  0  0  0  0  0  0  0  0  0  0  0
    1.3845    1.2963   -0.1155 C   0  0  0  0  0  0  0  0  0  0  0  0
    0.1490    0.6019   -0.0782 C   0  0  0  0  0  0  0  0  0  0  0  0
   -1.1256    1.2116   -0.2284 C   0  0  0  0  0  0  0  0  0  0  0  0
   -1.3144    3.0928   -0.5055 Br  0  0  0  0  0  0  0  0  0  0  0  0
   -3.4299    1.9448   -0.4475 H   0  0  0  0  0  0  0  0  0  0  0  0
   -3.1491   -1.5152    0.0587 H   0  0  0  0  0  0  0  0  0  0  0  0
   -0.9698   -2.6243    0.3251 H   0  0  0  0  0  0  0  0  0  0  0  0
    1.4594   -2.5327    0.4330 H   0  0  0  0  0  0  0  0  0  0  0  0
    3.5317    1.2030    0.0047 H   0  0  0  0  0  0  0  0  0  0  0  0
    1.4160    2.3730   -0.2671 H   0  0  0  0  0  0  0  0  0  0  0  0
  1  2  1  0
  2  3  2  0
  3  4  1  0
  4  5  2  0
  5  6  1  0
  6  7  2  0
  7  8  1  0
  7  9  1  0
  9 10  2  0
 10 11  1  0
 11 12  2  0
 12 13  1  0
 12  2  1  0
 11  5  1  0
  1 14  1  0
  3 15  1  0
  4 16  1  0
  6 17  1  0
  9 18  1  0
 10 19  1  0
M  END
