
     RDKit          3D

 26 29  0  0  0  0  0  0  0  0999 V2000
   -4.7059    0.9300    0.1132 Br  0  0  0  0  0  0  0  0  0  0  0  0
   -3.0793   -0.0646    0.1169 C   0  0  0  0  0  0  0  0  0  0  0  0
   -3.2055   -1.4497    0.2381 C   0  0  0  0  0  0  0  0  0  0  0  0
   -2.0706   -2.2530    0.2498 C   0  0  0  0  0  0  0  0  0  0  0  0
   -0.7974   -1.6840    0.1407 C   0  0  0  0  0  0  0  0  0  0  0  0
    0.3370   -2.4966    0.1532 C   0  0  0  0  0  0  0  0  0  0  0  0
    1.6124   -1.9415    0.0451 C   0  0  0  0  0  0  0  0  0  0  0  0
    1.8068   -0.5499   -0.0799 C   0  0  0  0  0  0  0  0  0  0  0  0
    3.0793    0.0646   -0.1927 C   0  0  0  0  0  0  0  0  0  0  0  0
    4.7059   -0.9300   -0.1890 Br  0  0  0  0  0  0  0  0  0  0  0  0
    3.2055    1.4497   -0.3139 C   0  0  0  0  0  0  0  0  0  0  0  0
    2.0706    2.2530   -0.3256 C   0  0  0  0  0  0  0  0  0  0  0  0
    0.7974    1.6840   -0.2165 C   0  0  0  0  0  0  0  0  0  0  0  0
   -0.3370    2.4966   -0.2290 C   0  0  0  0  0  0  0  0  0  0  0  0
   -1.6124    1.9415   -0.1210 C   0  0  0  0  0  0  0  0  0  0  0  0
   -1.8068    0.5499    0.0041 C   0  0  0  0  0  0  0  0  0  0  0  0
   -0.6534   -0.2803    0.0171 C   0  0  0  0  0  0  0  0  0  0  0  0
    0.6534    0.2803   -0.0929 C   0  0  0  0  0  0  0  0  0  0  0  0
   -4.1849   -1.9138    0.3242 H   0  0  0  0  0  0  0  0  0  0  0  0
   -2.1907   -3.3303    0.3451 H   0  0  0  0  0  0  0  0  0  0  0  0
    0.2450   -3.5769    0.2474 H   0  0  0  0  0  0  0  0  0  0  0  0
    2.4574   -2.6260    0.0610 H   0  0  0  0  0  0  0  0  0  0  0  0
    4.1849    1.9139   -0.4000 H   0  0  0  0  0  0  0  0  0  0  0  0
    2.1907    3.3303   -0.4209 H   0  0  0  0  0  0  0  0  0  0  0  0
   -0.2450    3.5769   -0.3232 H   0  0  0  0  0  0  0  0  0  0  0  0
   -2.4574    2.6260   -0.1368 H   0  0  0  0  0  0  0  0  0  0  0  0
  1  2  1  0
  2  3  2  0
  3  4  1  0
  4  5  2  0
  5  6  1  0
  6  7  2  0
  7  8  1  0
  8  9  2  0
  9 10  1  0
  9 11  1  0
 11 12  2  0
 12 13  1  0
 13 14  2  0
 14 15  1  0
 15 16  2  0
 16 17  1  0
 17 18  2  0
 16  2  1  0
 17  5  1  0
 18  8  1  0
 18 13  1  0
  3 19  1  0
  4 20  1  0
  6 21  1  0
  7 22  1  0
 11 23  1  0
 12 24  1  0
 14 25  1  0
 15 26  1  0
M  END
