
     RDKit          3D

 22 23  0  0  0  0  0  0  0  0999 V2000
   -2.9512   -2.4764   -0.0011 O   0  0  0  0  0  0  0  0  0  0  0  0
   -2.8568   -1.2936    0.2670 C   0  0  0  0  0  0  0  0  0  0  0  0
   -3.9362   -0.5868    0.6582 O   0  0  0  0  0  0  0  0  0  0  0  0
   -1.6146   -0.4819    0.2114 C   0  0  0  0  0  0  0  0  0  0  0  0
   -0.4491   -1.1496   -0.1879 C   0  0  0  0  0  0  0  0  0  0  0  0
    0.7830   -0.4854   -0.2772 C   0  0  0  0  0  0  0  0  0  0  0  0
    1.9268   -1.1946   -0.6821 C   0  0  0  0  0  0  0  0  0  0  0  0
    3.1608   -0.5575   -0.7784 C   0  0  0  0  0  0  0  0  0  0  0  0
    4.6841   -1.5329   -1.3252 Br  0  0  0  0  0  0  0  0  0  0  0  0
    3.2762    0.7903   -0.4745 C   0  0  0  0  0  0  0  0  0  0  0  0
    2.1450    1.5052   -0.0707 C   0  0  0  0  0  0  0  0  0  0  0  0
    0.8697    0.8935    0.0401 C   0  0  0  0  0  0  0  0  0  0  0  0
   -0.3208    1.5623    0.4447 C   0  0  0  0  0  0  0  0  0  0  0  0
   -0.2879    3.4271    0.8910 Br  0  0  0  0  0  0  0  0  0  0  0  0
   -1.5489    0.8793    0.5287 C   0  0  0  0  0  0  0  0  0  0  0  0
   -2.6582    1.5851    0.9258 O   0  0  0  0  0  0  0  0  0  0  0  0
   -4.6574   -1.2570    0.6422 H   0  0  0  0  0  0  0  0  0  0  0  0
   -0.5064   -2.2109   -0.4340 H   0  0  0  0  0  0  0  0  0  0  0  0
    1.8552   -2.2534   -0.9247 H   0  0  0  0  0  0  0  0  0  0  0  0
    4.2343    1.2986   -0.5460 H   0  0  0  0  0  0  0  0  0  0  0  0
    2.2803    2.5603    0.1580 H   0  0  0  0  0  0  0  0  0  0  0  0
   -3.4279    0.9783    0.9350 H   0  0  0  0  0  0  0  0  0  0  0  0
  1  2  2  0
  2  3  1  0
  2  4  1  0
  4  5  2  0
  5  6  1  0
  6  7  2  0
  7  8  1  0
  8  9  1  0
  8 10  2  0
 10 11  1  0
 11 12  2  0
 12 13  1  0
 13 14  1  0
 13 15  2  0
 15 16  1  0
 15  4  1  0
 12  6  1  0
  3 17  1  0
  5 18  1  0
  7 19  1  0
 10 20  1  0
 11 21  1  0
 16 22  1  0
M  END
