
     RDKit          3D

 38 44  0  0  0  0  0  0  0  0999 V2000
    1.5304   -2.0233    1.2437 C   0  0  0  0  0  0  0  0  0  0  0  0
    2.9218   -2.0067    1.2527 C   0  0  0  0  0  0  0  0  0  0  0  0
    3.5941   -0.9722    0.6322 C   0  0  0  0  0  0  0  0  0  0  0  0
    2.8733    0.0672    0.0753 C   0  0  0  0  0  0  0  0  0  0  0  0
    3.5989    1.1308   -0.4162 C   0  0  0  0  0  0  0  0  0  0  0  0
    2.9371    2.2692   -0.8365 C   0  0  0  0  0  0  0  0  0  0  0  0
    1.5404    2.3215   -0.8101 C   0  0  0  0  0  0  0  0  0  0  0  0
    0.7187    1.1806   -0.4748 C   0  0  0  0  0  0  0  0  0  0  0  0
    1.4269    0.0593    0.0447 C   0  0  0  0  0  0  0  0  0  0  0  0
    0.7281   -1.0703    0.5716 C   0  0  0  0  0  0  0  0  0  0  0  0
   -0.7187   -1.1806    0.4749 C   0  0  0  0  0  0  0  0  0  0  0  0
   -1.5404   -2.3215    0.8101 C   0  0  0  0  0  0  0  0  0  0  0  0
   -2.9371   -2.2692    0.8365 C   0  0  0  0  0  0  0  0  0  0  0  0
   -3.5989   -1.1308    0.4161 C   0  0  0  0  0  0  0  0  0  0  0  0
   -2.8734   -0.0672   -0.0753 C   0  0  0  0  0  0  0  0  0  0  0  0
   -3.5941    0.9722   -0.6322 C   0  0  0  0  0  0  0  0  0  0  0  0
   -2.9218    2.0067   -1.2526 C   0  0  0  0  0  0  0  0  0  0  0  0
   -1.5304    2.0233   -1.2436 C   0  0  0  0  0  0  0  0  0  0  0  0
   -0.7281    1.0703   -0.5716 C   0  0  0  0  0  0  0  0  0  0  0  0
   -1.4269   -0.0593   -0.0447 C   0  0  0  0  0  0  0  0  0  0  0  0
   -5.0689    0.9759   -0.6476 C   0  0  0  0  0  0  0  0  0  0  0  0
   -5.6761    1.9130   -1.1516 O   0  0  0  0  0  0  0  0  0  0  0  0
   -5.7172   -0.0649   -0.0934 O   0  0  0  0  0  0  0  0  0  0  0  0
   -5.0737   -1.1228    0.4324 C   0  0  0  0  0  0  0  0  0  0  0  0
   -5.6846   -2.0673    0.9181 O   0  0  0  0  0  0  0  0  0  0  0  0
   -0.9146   -4.1214    1.0340 Br  0  0  0  0  0  0  0  0  0  0  0  0
    0.9146    4.1215   -1.0339 Br  0  0  0  0  0  0  0  0  0  0  0  0
    5.0737    1.1228   -0.4325 C   0  0  0  0  0  0  0  0  0  0  0  0
    5.6846    2.0672   -0.9183 O   0  0  0  0  0  0  0  0  0  0  0  0
    5.7172    0.0649    0.0933 O   0  0  0  0  0  0  0  0  0  0  0  0
    5.0689   -0.9758    0.6476 C   0  0  0  0  0  0  0  0  0  0  0  0
    5.6761   -1.9130    1.1517 O   0  0  0  0  0  0  0  0  0  0  0  0
    1.0946   -2.8125    1.8435 H   0  0  0  0  0  0  0  0  0  0  0  0
    3.4633   -2.8010    1.7656 H   0  0  0  0  0  0  0  0  0  0  0  0
    3.5160    3.1438   -1.1359 H   0  0  0  0  0  0  0  0  0  0  0  0
   -3.5160   -3.1438    1.1359 H   0  0  0  0  0  0  0  0  0  0  0  0
   -3.4633    2.8010   -1.7656 H   0  0  0  0  0  0  0  0  0  0  0  0
   -1.0946    2.8126   -1.8434 H   0  0  0  0  0  0  0  0  0  0  0  0
  1  2  2  0
  2  3  1  0
  3  4  2  0
  4  5  1  0
  5  6  2  0
  6  7  1  0
  7  8  2  0
  8  9  1  0
  9 10  2  0
 10 11  1  0
 11 12  2  0
 12 13  1  0
 13 14  2  0
 14 15  1  0
 15 16  2  0
 16 17  1  0
 17 18  2  0
 18 19  1  0
 19 20  2  0
 16 21  1  0
 21 22  2  0
 21 23  1  0
 23 24  1  0
 24 25  2  0
 12 26  1  0
  7 27  1  0
  5 28  1  0
 28 29  2  0
 28 30  1  0
 30 31  1  0
 31 32  2  0
 10  1  1  0
 31  3  1  0
  9  4  1  0
 19  8  1  0
 20 11  1  0
 24 14  1  0
 20 15  1  0
  1 33  1  0
  2 34  1  0
  6 35  1  0
 13 36  1  0
 17 37  1  0
 18 38  1  0
M  END
