
     RDKit          3D

 38 44  0  0  0  0  0  0  0  0999 V2000
    1.8342    2.1584   -0.0762 C   0  0  0  0  0  0  0  0  0  0  0  0
    3.2129    1.9811   -0.0371 C   0  0  0  0  0  0  0  0  0  0  0  0
    3.7306    0.7097    0.0421 C   0  0  0  0  0  0  0  0  0  0  0  0
    2.8683   -0.3682    0.0814 C   0  0  0  0  0  0  0  0  0  0  0  0
    3.4647   -1.6053    0.1604 C   0  0  0  0  0  0  0  0  0  0  0  0
    2.6754   -2.7331    0.2040 C   0  0  0  0  0  0  0  0  0  0  0  0
    1.2800   -2.6321    0.1686 C   0  0  0  0  0  0  0  0  0  0  0  0
    0.5731   -1.3605    0.0852 C   0  0  0  0  0  0  0  0  0  0  0  0
    1.4201   -0.2083    0.0417 C   0  0  0  0  0  0  0  0  0  0  0  0
    0.8729    1.1180   -0.0411 C   0  0  0  0  0  0  0  0  0  0  0  0
   -0.5731    1.3604   -0.0852 C   0  0  0  0  0  0  0  0  0  0  0  0
   -1.2800    2.6321   -0.1686 C   0  0  0  0  0  0  0  0  0  0  0  0
   -2.6754    2.7331   -0.2039 C   0  0  0  0  0  0  0  0  0  0  0  0
   -3.4647    1.6053   -0.1605 C   0  0  0  0  0  0  0  0  0  0  0  0
   -2.8683    0.3681   -0.0814 C   0  0  0  0  0  0  0  0  0  0  0  0
   -3.7306   -0.7097   -0.0421 C   0  0  0  0  0  0  0  0  0  0  0  0
   -3.2130   -1.9811    0.0370 C   0  0  0  0  0  0  0  0  0  0  0  0
   -1.8342   -2.1585    0.0761 C   0  0  0  0  0  0  0  0  0  0  0  0
   -0.8729   -1.1180    0.0411 C   0  0  0  0  0  0  0  0  0  0  0  0
   -1.4201    0.2083   -0.0417 C   0  0  0  0  0  0  0  0  0  0  0  0
   -5.1978   -0.5570   -0.0818 C   0  0  0  0  0  0  0  0  0  0  0  0
   -5.9224   -1.5442   -0.0445 O   0  0  0  0  0  0  0  0  0  0  0  0
   -5.7077    0.6838   -0.1593 O   0  0  0  0  0  0  0  0  0  0  0  0
   -4.9304    1.7788   -0.2012 C   0  0  0  0  0  0  0  0  0  0  0  0
   -5.4144    2.9022   -0.2718 O   0  0  0  0  0  0  0  0  0  0  0  0
   -0.5308    4.3953   -0.2471 Br  0  0  0  0  0  0  0  0  0  0  0  0
    0.5307   -4.3953    0.2473 Br  0  0  0  0  0  0  0  0  0  0  0  0
    4.9304   -1.7788    0.2012 C   0  0  0  0  0  0  0  0  0  0  0  0
    5.4145   -2.9021    0.2718 O   0  0  0  0  0  0  0  0  0  0  0  0
    5.7077   -0.6837    0.1593 O   0  0  0  0  0  0  0  0  0  0  0  0
    5.1978    0.5570    0.0818 C   0  0  0  0  0  0  0  0  0  0  0  0
    5.9224    1.5443    0.0445 O   0  0  0  0  0  0  0  0  0  0  0  0
    1.5682    3.1981   -0.1375 H   0  0  0  0  0  0  0  0  0  0  0  0
    3.8644    2.8542   -0.0698 H   0  0  0  0  0  0  0  0  0  0  0  0
    3.1567   -3.7108    0.2667 H   0  0  0  0  0  0  0  0  0  0  0  0
   -3.1567    3.7107   -0.2667 H   0  0  0  0  0  0  0  0  0  0  0  0
   -3.8644   -2.8542    0.0698 H   0  0  0  0  0  0  0  0  0  0  0  0
   -1.5682   -3.1981    0.1374 H   0  0  0  0  0  0  0  0  0  0  0  0
  1  2  2  0
  2  3  1  0
  3  4  2  0
  4  5  1  0
  5  6  2  0
  6  7  1  0
  7  8  2  0
  8  9  1  0
  9 10  2  0
 10 11  1  0
 11 12  2  0
 12 13  1  0
 13 14  2  0
 14 15  1  0
 15 16  2  0
 16 17  1  0
 17 18  2  0
 18 19  1  0
 19 20  2  0
 16 21  1  0
 21 22  2  0
 21 23  1  0
 23 24  1  0
 24 25  2  0
 12 26  1  0
  7 27  1  0
  5 28  1  0
 28 29  2  0
 28 30  1  0
 30 31  1  0
 31 32  2  0
 10  1  1  0
 31  3  1  0
  9  4  1  0
 19  8  1  0
 20 11  1  0
 24 14  1  0
 20 15  1  0
  1 33  1  0
  2 34  1  0
  6 35  1  0
 13 36  1  0
 17 37  1  0
 18 38  1  0
M  END
