
     RDKit          3D

 18 19  0  0  0  0  0  0  0  0999 V2000
    1.1068    3.4385    0.1868 Br  0  0  0  0  0  0  0  0  0  0  0  0
    1.0667    1.5321    0.1304 C   0  0  0  0  0  0  0  0  0  0  0  0
    2.3525    0.9675    0.2203 C   0  0  0  0  0  0  0  0  0  0  0  0
    2.5251   -0.4042    0.1963 C   0  0  0  0  0  0  0  0  0  0  0  0
    1.4116   -1.2213    0.0820 C   0  0  0  0  0  0  0  0  0  0  0  0
    0.1157   -0.6893   -0.0097 C   0  0  0  0  0  0  0  0  0  0  0  0
   -0.9362   -1.6123   -0.1219 C   0  0  0  0  0  0  0  0  0  0  0  0
   -2.2558   -1.2005   -0.2189 C   0  0  0  0  0  0  0  0  0  0  0  0
   -2.5404    0.1525   -0.2046 C   0  0  0  0  0  0  0  0  0  0  0  0
   -1.5089    1.1031   -0.0933 C   0  0  0  0  0  0  0  0  0  0  0  0
   -2.1691    2.8929   -0.0977 Br  0  0  0  0  0  0  0  0  0  0  0  0
   -0.1210    0.7212    0.0102 C   0  0  0  0  0  0  0  0  0  0  0  0
    3.2327    1.6013    0.3103 H   0  0  0  0  0  0  0  0  0  0  0  0
    3.5199   -0.8354    0.2661 H   0  0  0  0  0  0  0  0  0  0  0  0
    1.5694   -2.2992    0.0649 H   0  0  0  0  0  0  0  0  0  0  0  0
   -0.7335   -2.6828   -0.1350 H   0  0  0  0  0  0  0  0  0  0  0  0
   -3.0557   -1.9307   -0.3050 H   0  0  0  0  0  0  0  0  0  0  0  0
   -3.5797    0.4666   -0.2812 H   0  0  0  0  0  0  0  0  0  0  0  0
  1  2  1  0
  2  3  2  0
  3  4  1  0
  4  5  2  0
  5  6  1  0
  6  7  2  0
  7  8  1  0
  8  9  2  0
  9 10  1  0
 10 11  1  0
 10 12  2  0
 12  2  1  0
 12  6  1  0
  3 13  1  0
  4 14  1  0
  5 15  1  0
  7 16  1  0
  8 17  1  0
  9 18  1  0
M  END
