
     RDKit          3D

 26 29  0  0  0  0  0  0  0  0999 V2000
   -4.0196    2.5980   -0.0108 Br  0  0  0  0  0  0  0  0  0  0  0  0
   -2.8836    1.0680    0.0487 C   0  0  0  0  0  0  0  0  0  0  0  0
   -3.5215   -0.1684    0.1638 C   0  0  0  0  0  0  0  0  0  0  0  0
   -2.7694   -1.3369    0.2142 C   0  0  0  0  0  0  0  0  0  0  0  0
   -1.3731   -1.2856    0.1504 C   0  0  0  0  0  0  0  0  0  0  0  0
   -0.6262   -2.4663    0.2018 C   0  0  0  0  0  0  0  0  0  0  0  0
    0.7650   -2.4313    0.1394 C   0  0  0  0  0  0  0  0  0  0  0  0
    1.4439   -1.2145    0.0238 C   0  0  0  0  0  0  0  0  0  0  0  0
    2.8412   -1.1954   -0.0378 C   0  0  0  0  0  0  0  0  0  0  0  0
    3.5260    0.0094   -0.1528 C   0  0  0  0  0  0  0  0  0  0  0  0
    2.8190    1.2118   -0.2075 C   0  0  0  0  0  0  0  0  0  0  0  0
    3.8667    2.7969   -0.3651 Br  0  0  0  0  0  0  0  0  0  0  0  0
    1.4028    1.2342   -0.1480 C   0  0  0  0  0  0  0  0  0  0  0  0
    0.6300    2.4100   -0.1980 C   0  0  0  0  0  0  0  0  0  0  0  0
   -0.7657    2.3748   -0.1353 C   0  0  0  0  0  0  0  0  0  0  0  0
   -1.4707    1.1617   -0.0189 C   0  0  0  0  0  0  0  0  0  0  0  0
   -0.7117   -0.0351    0.0332 C   0  0  0  0  0  0  0  0  0  0  0  0
    0.7127    0.0008   -0.0308 C   0  0  0  0  0  0  0  0  0  0  0  0
   -4.6057   -0.2325    0.2151 H   0  0  0  0  0  0  0  0  0  0  0  0
   -3.2863   -2.2902    0.3041 H   0  0  0  0  0  0  0  0  0  0  0  0
   -1.1207   -3.4315    0.2916 H   0  0  0  0  0  0  0  0  0  0  0  0
    1.3136   -3.3701    0.1822 H   0  0  0  0  0  0  0  0  0  0  0  0
    3.4114   -2.1212    0.0032 H   0  0  0  0  0  0  0  0  0  0  0  0
    4.6123    0.0000   -0.1989 H   0  0  0  0  0  0  0  0  0  0  0  0
    1.1000    3.3868   -0.2875 H   0  0  0  0  0  0  0  0  0  0  0  0
   -1.2903    3.3266   -0.1801 H   0  0  0  0  0  0  0  0  0  0  0  0
  1  2  1  0
  2  3  2  0
  3  4  1  0
  4  5  2  0
  5  6  1  0
  6  7  2  0
  7  8  1  0
  8  9  2  0
  9 10  1  0
 10 11  2  0
 11 12  1  0
 11 13  1  0
 13 14  2  0
 14 15  1  0
 15 16  2  0
 16 17  1  0
 17 18  2  0
 16  2  1  0
 17  5  1  0
 18  8  1  0
 18 13  1  0
  3 19  1  0
  4 20  1  0
  6 21  1  0
  7 22  1  0
  9 23  1  0
 10 24  1  0
 14 25  1  0
 15 26  1  0
M  END
