
     RDKit          3D

 15 15  0  0  0  0  0  0  0  0999 V2000
    2.3379   -0.8200    0.1445 C   0  0  0  0  0  0  0  0  0  0  0  0
    1.5844    0.4844    0.0685 C   0  0  0  0  0  0  0  0  0  0  0  0
    2.1828    1.5537    0.0061 O   0  0  0  0  0  0  0  0  0  0  0  0
    0.0970    0.4036    0.0184 C   0  0  0  0  0  0  0  0  0  0  0  0
   -0.3800   -0.8014   -0.4230 N   0  0  0  0  0  0  0  0  0  0  0  0
   -1.7227   -0.9147   -0.5152 C   0  0  0  0  0  0  0  0  0  0  0  0
   -2.4450   -2.5510   -1.1265 Br  0  0  0  0  0  0  0  0  0  0  0  0
   -2.5683    0.1264   -0.1742 C   0  0  0  0  0  0  0  0  0  0  0  0
   -2.1087    1.3184    0.2776 N   0  0  0  0  0  0  0  0  0  0  0  0
   -0.7548    1.4518    0.3707 C   0  0  0  0  0  0  0  0  0  0  0  0
   -0.1805    3.1147    1.0868 Br  0  0  0  0  0  0  0  0  0  0  0  0
    1.8466   -1.5134    0.8328 H   0  0  0  0  0  0  0  0  0  0  0  0
    3.3435   -0.6307    0.5324 H   0  0  0  0  0  0  0  0  0  0  0  0
    2.4152   -1.2619   -0.8520 H   0  0  0  0  0  0  0  0  0  0  0  0
   -3.6474    0.0402   -0.2470 H   0  0  0  0  0  0  0  0  0  0  0  0
  1  2  1  0
  2  3  2  0
  2  4  1  0
  4  5  2  0
  5  6  1  0
  6  7  1  0
  6  8  2  0
  8  9  1  0
  9 10  2  0
 10 11  1  0
 10  4  1  0
  1 12  1  0
  1 13  1  0
  1 14  1  0
  8 15  1  0
M  END
