
     RDKit          3D

 44 47  0  0  0  0  0  0  0  0999 V2000
    0.4413    0.0953    2.0605 O   0  0  0  0  0  0  0  0  0  0  0  0
    0.4423   -0.1044    0.6370 C   0  0  0  0  0  0  0  0  0  0  0  0
    1.8513   -0.5684    0.2184 C   0  0  0  0  0  0  0  0  0  0  0  0
    2.8260    0.4373    0.6613 N   0  0  0  0  0  0  0  0  0  0  0  0
    4.1889    0.2243    0.4045 C   0  0  0  0  0  0  0  0  0  0  0  0
    5.0609    1.3196    0.5067 C   0  0  0  0  0  0  0  0  0  0  0  0
    6.4399    1.1739    0.3284 C   0  0  0  0  0  0  0  0  0  0  0  0
    6.9774   -0.0822    0.0713 C   0  0  0  0  0  0  0  0  0  0  0  0
    6.1363   -1.1886    0.0082 C   0  0  0  0  0  0  0  0  0  0  0  0
    4.7562   -1.0365    0.1883 C   0  0  0  0  0  0  0  0  0  0  0  0
   -0.6096   -1.1500    0.2608 C   0  0  0  0  0  0  0  0  0  0  0  0
   -1.9213   -0.5508    0.0278 N   0  0  0  0  0  0  0  0  0  0  0  0
   -2.3692   -0.1080   -1.2047 C   0  0  0  0  0  0  0  0  0  0  0  0
   -1.7398   -0.0692   -2.4615 C   0  0  0  0  0  0  0  0  0  0  0  0
   -2.4608    0.4396   -3.5463 C   0  0  0  0  0  0  0  0  0  0  0  0
   -3.7642    0.8937   -3.3796 C   0  0  0  0  0  0  0  0  0  0  0  0
   -4.7122    1.5761   -4.8683 Br  0  0  0  0  0  0  0  0  0  0  0  0
   -4.3865    0.8561   -2.1299 C   0  0  0  0  0  0  0  0  0  0  0  0
   -3.6766    0.3474   -1.0207 C   0  0  0  0  0  0  0  0  0  0  0  0
   -4.0049    0.1789    0.3605 C   0  0  0  0  0  0  0  0  0  0  0  0
   -5.1590    0.4578    1.1243 C   0  0  0  0  0  0  0  0  0  0  0  0
   -5.1534    0.1833    2.4941 C   0  0  0  0  0  0  0  0  0  0  0  0
   -6.6977    0.5590    3.5214 Br  0  0  0  0  0  0  0  0  0  0  0  0
   -4.0317   -0.3551    3.1139 C   0  0  0  0  0  0  0  0  0  0  0  0
   -2.8799   -0.6410    2.3749 C   0  0  0  0  0  0  0  0  0  0  0  0
   -2.8905   -0.3715    0.9958 C   0  0  0  0  0  0  0  0  0  0  0  0
    1.3290    0.4518    2.2752 H   0  0  0  0  0  0  0  0  0  0  0  0
    0.2252    0.8663    0.1749 H   0  0  0  0  0  0  0  0  0  0  0  0
    2.0588   -1.5255    0.7108 H   0  0  0  0  0  0  0  0  0  0  0  0
    1.9020   -0.6980   -0.8687 H   0  0  0  0  0  0  0  0  0  0  0  0
    2.5662    1.3846    0.3840 H   0  0  0  0  0  0  0  0  0  0  0  0
    4.6699    2.3091    0.7315 H   0  0  0  0  0  0  0  0  0  0  0  0
    7.0908    2.0410    0.4020 H   0  0  0  0  0  0  0  0  0  0  0  0
    8.0491   -0.2014   -0.0630 H   0  0  0  0  0  0  0  0  0  0  0  0
    6.5526   -2.1768   -0.1696 H   0  0  0  0  0  0  0  0  0  0  0  0
    4.1454   -1.9325    0.1569 H   0  0  0  0  0  0  0  0  0  0  0  0
   -0.3397   -1.6774   -0.6608 H   0  0  0  0  0  0  0  0  0  0  0  0
   -0.7252   -1.9087    1.0428 H   0  0  0  0  0  0  0  0  0  0  0  0
   -0.7236   -0.4211   -2.6052 H   0  0  0  0  0  0  0  0  0  0  0  0
   -1.9886    0.4751   -4.5253 H   0  0  0  0  0  0  0  0  0  0  0  0
   -5.4037    1.2142   -2.0042 H   0  0  0  0  0  0  0  0  0  0  0  0
   -6.0355    0.8849    0.6471 H   0  0  0  0  0  0  0  0  0  0  0  0
   -4.0349   -0.5557    4.1825 H   0  0  0  0  0  0  0  0  0  0  0  0
   -2.0010   -1.0465    2.8680 H   0  0  0  0  0  0  0  0  0  0  0  0
  1  2  1  0
  2  3  1  0
  3  4  1  0
  4  5  1  0
  5  6  2  0
  6  7  1  0
  7  8  2  0
  8  9  1  0
  9 10  2  0
  2 11  1  0
 11 12  1  0
 12 13  1  0
 13 14  2  0
 14 15  1  0
 15 16  2  0
 16 17  1  0
 16 18  1  0
 18 19  2  0
 19 20  1  0
 20 21  2  0
 21 22  1  0
 22 23  1  0
 22 24  2  0
 24 25  1  0
 25 26  2  0
 10  5  1  0
 26 12  1  0
 19 13  1  0
 26 20  1  0
  1 27  1  0
  2 28  1  0
  3 29  1  0
  3 30  1  0
  4 31  1  0
  6 32  1  0
  7 33  1  0
  8 34  1  0
  9 35  1  0
 10 36  1  0
 11 37  1  0
 11 38  1  0
 14 39  1  0
 15 40  1  0
 18 41  1  0
 21 42  1  0
 24 43  1  0
 25 44  1  0
M  END
