
     RDKit          3D

 15 15  0  0  0  0  0  0  0  0999 V2000
   -2.1925   -1.1459    0.1965 C   0  0  0  0  0  0  0  0  0  0  0  0
   -1.6228    0.2503    0.2313 C   0  0  0  0  0  0  0  0  0  0  0  0
   -2.3413    1.2171    0.4644 O   0  0  0  0  0  0  0  0  0  0  0  0
   -0.1530    0.3855    0.0250 C   0  0  0  0  0  0  0  0  0  0  0  0
    0.5543   -0.7543    0.2986 N   0  0  0  0  0  0  0  0  0  0  0  0
    1.8950   -0.6741    0.1559 C   0  0  0  0  0  0  0  0  0  0  0  0
    2.9302   -2.2116    0.5266 Br  0  0  0  0  0  0  0  0  0  0  0  0
    2.5171    0.4928   -0.2522 C   0  0  0  0  0  0  0  0  0  0  0  0
    1.8268    1.6228   -0.5398 N   0  0  0  0  0  0  0  0  0  0  0  0
    0.4723    1.5608   -0.3947 C   0  0  0  0  0  0  0  0  0  0  0  0
   -0.4407    3.1506   -0.8916 Br  0  0  0  0  0  0  0  0  0  0  0  0
   -1.7401   -1.7306   -0.6093 H   0  0  0  0  0  0  0  0  0  0  0  0
   -3.2671   -1.0895   -0.0031 H   0  0  0  0  0  0  0  0  0  0  0  0
   -2.0320   -1.6358    1.1601 H   0  0  0  0  0  0  0  0  0  0  0  0
    3.5937    0.5621   -0.3678 H   0  0  0  0  0  0  0  0  0  0  0  0
  1  2  1  0
  2  3  2  0
  2  4  1  0
  4  5  2  0
  5  6  1  0
  6  7  1  0
  6  8  2  0
  8  9  1  0
  9 10  2  0
 10 11  1  0
 10  4  1  0
  1 12  1  0
  1 13  1  0
  1 14  1  0
  8 15  1  0
M  END
