
     RDKit          3D

 27 28  0  0  0  0  0  0  0  0999 V2000
    4.1949   -2.4155    1.5239 Br  0  0  0  0  0  0  0  0  0  0  0  0
    3.2519   -0.9392    0.8085 C   0  0  0  0  0  0  0  0  0  0  0  0
    3.9465    0.2060    0.4443 C   0  0  0  0  0  0  0  0  0  0  0  0
    3.2321    1.2777   -0.0733 C   0  0  0  0  0  0  0  0  0  0  0  0
    4.1496    2.8511   -0.5862 Br  0  0  0  0  0  0  0  0  0  0  0  0
    1.8426    1.2073   -0.2247 C   0  0  0  0  0  0  0  0  0  0  0  0
    1.1181    0.0584    0.1364 C   0  0  0  0  0  0  0  0  0  0  0  0
   -0.2612   -0.0136   -0.0137 N   0  0  0  0  0  0  0  0  0  0  0  0
   -0.9424   -1.3099   -0.1135 C   0  0  0  0  0  0  0  0  0  0  0  0
   -2.2239   -1.1803   -0.9334 C   0  0  0  0  0  0  0  0  0  0  0  0
   -3.1944   -0.1667   -0.3329 C   0  0  0  0  0  0  0  0  0  0  0  0
   -2.4849    0.9345    0.4503 C   0  0  0  0  0  0  0  0  0  0  0  0
   -1.0777    1.2045   -0.0769 C   0  0  0  0  0  0  0  0  0  0  0  0
    1.8625   -1.0139    0.6574 C   0  0  0  0  0  0  0  0  0  0  0  0
    5.0243    0.2623    0.5616 H   0  0  0  0  0  0  0  0  0  0  0  0
    1.3283    2.0610   -0.6569 H   0  0  0  0  0  0  0  0  0  0  0  0
   -1.1706   -1.6859    0.8911 H   0  0  0  0  0  0  0  0  0  0  0  0
   -0.3073   -2.0496   -0.6160 H   0  0  0  0  0  0  0  0  0  0  0  0
   -1.9646   -0.8627   -1.9519 H   0  0  0  0  0  0  0  0  0  0  0  0
   -2.7165   -2.1548   -1.0267 H   0  0  0  0  0  0  0  0  0  0  0  0
   -3.9032   -0.6747    0.3321 H   0  0  0  0  0  0  0  0  0  0  0  0
   -3.7924    0.2729   -1.1402 H   0  0  0  0  0  0  0  0  0  0  0  0
   -2.4189    0.6339    1.5043 H   0  0  0  0  0  0  0  0  0  0  0  0
   -3.0836    1.8520    0.4249 H   0  0  0  0  0  0  0  0  0  0  0  0
   -0.6447    1.9999    0.5419 H   0  0  0  0  0  0  0  0  0  0  0  0
   -1.1225    1.5662   -1.1112 H   0  0  0  0  0  0  0  0  0  0  0  0
    1.3581   -1.9208    0.9788 H   0  0  0  0  0  0  0  0  0  0  0  0
  1  2  1  0
  2  3  2  0
  3  4  1  0
  4  5  1  0
  4  6  2  0
  6  7  1  0
  7  8  1  0
  8  9  1  0
  9 10  1  0
 10 11  1  0
 11 12  1  0
 12 13  1  0
  7 14  2  0
 14  2  1  0
 13  8  1  0
  3 15  1  0
  6 16  1  0
  9 17  1  0
  9 18  1  0
 10 19  1  0
 10 20  1  0
 11 21  1  0
 11 22  1  0
 12 23  1  0
 12 24  1  0
 13 25  1  0
 13 26  1  0
 14 27  1  0
M  END
