
     RDKit          3D

 17 17  0  0  0  0  0  0  0  0999 V2000
    2.7051    0.5867    0.1808 C   0  0  0  0  0  0  0  0  0  0  0  0
    1.7749   -0.5925    0.0670 C   0  0  0  0  0  0  0  0  0  0  0  0
    2.2066   -1.7427    0.0301 O   0  0  0  0  0  0  0  0  0  0  0  0
    0.3021   -0.3527   -0.0019 C   0  0  0  0  0  0  0  0  0  0  0  0
   -0.5489   -1.4603   -0.1076 C   0  0  0  0  0  0  0  0  0  0  0  0
   -1.9335   -1.2865   -0.1751 C   0  0  0  0  0  0  0  0  0  0  0  0
   -2.4835   -0.0024   -0.1377 C   0  0  0  0  0  0  0  0  0  0  0  0
   -4.3745    0.1348   -0.2351 Br  0  0  0  0  0  0  0  0  0  0  0  0
   -1.6391    1.1086   -0.0322 C   0  0  0  0  0  0  0  0  0  0  0  0
   -2.2853    2.8952    0.0265 Br  0  0  0  0  0  0  0  0  0  0  0  0
   -0.2492    0.9333    0.0355 C   0  0  0  0  0  0  0  0  0  0  0  0
    2.5053    1.1395    1.1023 H   0  0  0  0  0  0  0  0  0  0  0  0
    2.6048    1.2344   -0.6939 H   0  0  0  0  0  0  0  0  0  0  0  0
    3.7381    0.2267    0.2190 H   0  0  0  0  0  0  0  0  0  0  0  0
   -0.1373   -2.4688   -0.1381 H   0  0  0  0  0  0  0  0  0  0  0  0
   -2.5728   -2.1633   -0.2569 H   0  0  0  0  0  0  0  0  0  0  0  0
    0.3873    1.8099    0.1171 H   0  0  0  0  0  0  0  0  0  0  0  0
  1  2  1  0
  2  3  2  0
  2  4  1  0
  4  5  2  0
  5  6  1  0
  6  7  2  0
  7  8  1  0
  7  9  1  0
  9 10  1  0
  9 11  2  0
 11  4  1  0
  1 12  1  0
  1 13  1  0
  1 14  1  0
  5 15  1  0
  6 16  1  0
 11 17  1  0
M  END
