
     RDKit          3D

 17 17  0  0  0  0  0  0  0  0999 V2000
   -2.7654    0.0869    0.0380 C   0  0  0  0  0  0  0  0  0  0  0  0
   -1.6193   -0.8486   -0.2452 C   0  0  0  0  0  0  0  0  0  0  0  0
   -1.8174   -2.0115   -0.5901 O   0  0  0  0  0  0  0  0  0  0  0  0
   -0.2198   -0.3482   -0.1026 C   0  0  0  0  0  0  0  0  0  0  0  0
    0.0656    0.9657    0.2869 C   0  0  0  0  0  0  0  0  0  0  0  0
    1.3947    1.3788    0.4038 C   0  0  0  0  0  0  0  0  0  0  0  0
    1.7750    3.1554    0.9304 Br  0  0  0  0  0  0  0  0  0  0  0  0
    2.4437    0.5016    0.1384 C   0  0  0  0  0  0  0  0  0  0  0  0
    2.1548   -0.8043   -0.2486 C   0  0  0  0  0  0  0  0  0  0  0  0
    3.5685   -2.0057   -0.6120 Br  0  0  0  0  0  0  0  0  0  0  0  0
    0.8339   -1.2340   -0.3706 C   0  0  0  0  0  0  0  0  0  0  0  0
   -2.7398    0.9365   -0.6493 H   0  0  0  0  0  0  0  0  0  0  0  0
   -3.7095   -0.4450   -0.1161 H   0  0  0  0  0  0  0  0  0  0  0  0
   -2.7323    0.4230    1.0775 H   0  0  0  0  0  0  0  0  0  0  0  0
   -0.7277    1.6756    0.5014 H   0  0  0  0  0  0  0  0  0  0  0  0
    3.4751    0.8317    0.2321 H   0  0  0  0  0  0  0  0  0  0  0  0
    0.6198   -2.2578   -0.6740 H   0  0  0  0  0  0  0  0  0  0  0  0
  1  2  1  0
  2  3  2  0
  2  4  1  0
  4  5  2  0
  5  6  1  0
  6  7  1  0
  6  8  2  0
  8  9  1  0
  9 10  1  0
  9 11  2  0
 11  4  1  0
  1 12  1  0
  1 13  1  0
  1 14  1  0
  5 15  1  0
  8 16  1  0
 11 17  1  0
M  END
