
     RDKit          3D

 19 19  0  0  0  0  0  0  0  0999 V2000
   -3.1909   -0.4276    0.1812 C   0  0  0  0  0  0  0  0  0  0  0  0
   -2.2070    0.6197   -0.2703 C   0  0  0  0  0  0  0  0  0  0  0  0
   -2.5869    1.6963   -0.7251 O   0  0  0  0  0  0  0  0  0  0  0  0
   -0.7445    0.3407   -0.1569 C   0  0  0  0  0  0  0  0  0  0  0  0
   -0.2525   -0.8423    0.3998 C   0  0  0  0  0  0  0  0  0  0  0  0
    1.1299   -1.0534    0.4819 C   0  0  0  0  0  0  0  0  0  0  0  0
    1.7256   -2.6974    1.2356 Br  0  0  0  0  0  0  0  0  0  0  0  0
    2.0521   -0.0843    0.0465 C   0  0  0  0  0  0  0  0  0  0  0  0
    3.4327   -0.3633    0.0099 N   0  0  0  0  0  0  0  0  0  0  0  0
    1.5335    1.0787   -0.5499 C   0  0  0  0  0  0  0  0  0  0  0  0
    2.6908    2.4210   -1.2423 Br  0  0  0  0  0  0  0  0  0  0  0  0
    0.1552    1.3002   -0.6352 C   0  0  0  0  0  0  0  0  0  0  0  0
   -3.0902   -0.6031    1.2553 H   0  0  0  0  0  0  0  0  0  0  0  0
   -4.2079   -0.0718   -0.0120 H   0  0  0  0  0  0  0  0  0  0  0  0
   -3.0458   -1.3532   -0.3820 H   0  0  0  0  0  0  0  0  0  0  0  0
   -0.9247   -1.6120    0.7677 H   0  0  0  0  0  0  0  0  0  0  0  0
    3.7351   -1.0357    0.7101 H   0  0  0  0  0  0  0  0  0  0  0  0
    4.0163    0.4691   -0.0303 H   0  0  0  0  0  0  0  0  0  0  0  0
   -0.2208    2.2185   -1.0841 H   0  0  0  0  0  0  0  0  0  0  0  0
  1  2  1  0
  2  3  2  0
  2  4  1  0
  4  5  2  0
  5  6  1  0
  6  7  1  0
  6  8  2  0
  8  9  1  0
  8 10  1  0
 10 11  1  0
 10 12  2  0
 12  4  1  0
  1 13  1  0
  1 14  1  0
  1 15  1  0
  5 16  1  0
  9 17  1  0
  9 18  1  0
 12 19  1  0
M  END
