
     RDKit          3D

 26 27  0  0  0  0  0  0  0  0999 V2000
   -5.3767    1.1447    1.6706 Br  0  0  0  0  0  0  0  0  0  0  0  0
   -3.8529    0.5682    0.7125 C   0  0  0  0  0  0  0  0  0  0  0  0
   -2.6837    0.2524    1.3996 C   0  0  0  0  0  0  0  0  0  0  0  0
   -1.5528   -0.1742    0.6951 C   0  0  0  0  0  0  0  0  0  0  0  0
   -1.5882   -0.2954   -0.6979 C   0  0  0  0  0  0  0  0  0  0  0  0
   -0.5232   -0.6857   -1.4650 O   0  0  0  0  0  0  0  0  0  0  0  0
    0.5262   -1.4368   -0.8484 C   0  0  0  0  0  0  0  0  0  0  0  0
    1.6379   -0.5688   -0.3027 C   0  0  0  0  0  0  0  0  0  0  0  0
    2.4003   -1.0150    0.7874 C   0  0  0  0  0  0  0  0  0  0  0  0
    3.4467   -0.2378    1.2875 C   0  0  0  0  0  0  0  0  0  0  0  0
    3.7498    0.9875    0.6974 C   0  0  0  0  0  0  0  0  0  0  0  0
    3.0111    1.4343   -0.3961 C   0  0  0  0  0  0  0  0  0  0  0  0
    1.9650    0.6581   -0.8978 C   0  0  0  0  0  0  0  0  0  0  0  0
   -2.7719    0.0432   -1.3746 C   0  0  0  0  0  0  0  0  0  0  0  0
   -2.8969   -0.0708   -3.2687 Br  0  0  0  0  0  0  0  0  0  0  0  0
   -3.9044    0.4688   -0.6742 C   0  0  0  0  0  0  0  0  0  0  0  0
   -2.6355    0.3427    2.4822 H   0  0  0  0  0  0  0  0  0  0  0  0
   -0.6525   -0.3824    1.2644 H   0  0  0  0  0  0  0  0  0  0  0  0
    0.1276   -2.1212   -0.0887 H   0  0  0  0  0  0  0  0  0  0  0  0
    0.9595   -2.0692   -1.6326 H   0  0  0  0  0  0  0  0  0  0  0  0
    2.1844   -1.9729    1.2557 H   0  0  0  0  0  0  0  0  0  0  0  0
    4.0288   -0.5898    2.1353 H   0  0  0  0  0  0  0  0  0  0  0  0
    4.5651    1.5922    1.0858 H   0  0  0  0  0  0  0  0  0  0  0  0
    3.2503    2.3867   -0.8620 H   0  0  0  0  0  0  0  0  0  0  0  0
    1.4019    1.0188   -1.7567 H   0  0  0  0  0  0  0  0  0  0  0  0
   -4.8162    0.7224   -1.2080 H   0  0  0  0  0  0  0  0  0  0  0  0
  1  2  1  0
  2  3  2  0
  3  4  1  0
  4  5  2  0
  5  6  1  0
  6  7  1  0
  7  8  1  0
  8  9  2  0
  9 10  1  0
 10 11  2  0
 11 12  1  0
 12 13  2  0
  5 14  1  0
 14 15  1  0
 14 16  2  0
 16  2  1  0
 13  8  1  0
  3 17  1  0
  4 18  1  0
  7 19  1  0
  7 20  1  0
  9 21  1  0
 10 22  1  0
 11 23  1  0
 12 24  1  0
 13 25  1  0
 16 26  1  0
M  END
