
     RDKit          3D

 26 27  0  0  0  0  0  0  0  0999 V2000
    6.3914    0.8750    0.5183 Br  0  0  0  0  0  0  0  0  0  0  0  0
    4.5321    0.6599    0.2560 C   0  0  0  0  0  0  0  0  0  0  0  0
    3.6812    0.6034    1.3570 C   0  0  0  0  0  0  0  0  0  0  0  0
    2.3037    0.4444    1.1695 C   0  0  0  0  0  0  0  0  0  0  0  0
    1.7710    0.3393   -0.1201 C   0  0  0  0  0  0  0  0  0  0  0  0
    0.4399    0.1869   -0.4001 O   0  0  0  0  0  0  0  0  0  0  0  0
   -0.4612    0.0092    0.6920 C   0  0  0  0  0  0  0  0  0  0  0  0
   -1.8562   -0.2432    0.1665 C   0  0  0  0  0  0  0  0  0  0  0  0
   -2.0715   -1.0781   -0.9404 C   0  0  0  0  0  0  0  0  0  0  0  0
   -3.3655   -1.3354   -1.3964 C   0  0  0  0  0  0  0  0  0  0  0  0
   -4.4598   -0.7705   -0.7453 C   0  0  0  0  0  0  0  0  0  0  0  0
   -4.2616    0.0500    0.3633 C   0  0  0  0  0  0  0  0  0  0  0  0
   -2.9677    0.3090    0.8203 C   0  0  0  0  0  0  0  0  0  0  0  0
    2.6459    0.4010   -1.2184 C   0  0  0  0  0  0  0  0  0  0  0  0
    2.0049    0.2646   -3.0040 Br  0  0  0  0  0  0  0  0  0  0  0  0
    4.0225    0.5598   -1.0345 C   0  0  0  0  0  0  0  0  0  0  0  0
    4.0777    0.6836    2.3666 H   0  0  0  0  0  0  0  0  0  0  0  0
    1.6768    0.4109    2.0548 H   0  0  0  0  0  0  0  0  0  0  0  0
   -0.4636    0.9174    1.3068 H   0  0  0  0  0  0  0  0  0  0  0  0
   -0.1672   -0.8556    1.2995 H   0  0  0  0  0  0  0  0  0  0  0  0
   -1.2268   -1.5275   -1.4594 H   0  0  0  0  0  0  0  0  0  0  0  0
   -3.5175   -1.9764   -2.2608 H   0  0  0  0  0  0  0  0  0  0  0  0
   -5.4668   -0.9703   -1.1018 H   0  0  0  0  0  0  0  0  0  0  0  0
   -5.1157    0.4886    0.8727 H   0  0  0  0  0  0  0  0  0  0  0  0
   -2.8348    0.9489    1.6897 H   0  0  0  0  0  0  0  0  0  0  0  0
    4.6887    0.6048   -1.8917 H   0  0  0  0  0  0  0  0  0  0  0  0
  1  2  1  0
  2  3  2  0
  3  4  1  0
  4  5  2  0
  5  6  1  0
  6  7  1  0
  7  8  1  0
  8  9  2  0
  9 10  1  0
 10 11  2  0
 11 12  1  0
 12 13  2  0
  5 14  1  0
 14 15  1  0
 14 16  2  0
 16  2  1  0
 13  8  1  0
  3 17  1  0
  4 18  1  0
  7 19  1  0
  7 20  1  0
  9 21  1  0
 10 22  1  0
 11 23  1  0
 12 24  1  0
 13 25  1  0
 16 26  1  0
M  END
