
     RDKit          3D

 23 24  0  0  0  0  0  0  0  0999 V2000
    0.4145    0.2862    2.7588 O   0  0  0  0  0  0  0  0  0  0  0  0
    0.3165   -0.6485    1.6545 S   0  0  0  0  0  0  0  0  0  0  0  0
    0.3178   -2.0856    1.8477 O   0  0  0  0  0  0  0  0  0  0  0  0
   -1.0620   -0.2018    0.6380 C   0  0  0  0  0  0  0  0  0  0  0  0
   -1.6521   -1.1641   -0.1870 C   0  0  0  0  0  0  0  0  0  0  0  0
   -2.7361   -0.8068   -0.9883 C   0  0  0  0  0  0  0  0  0  0  0  0
   -3.2282    0.4992   -0.9570 C   0  0  0  0  0  0  0  0  0  0  0  0
   -2.6438    1.4521   -0.1209 C   0  0  0  0  0  0  0  0  0  0  0  0
   -1.5594    1.1040    0.6839 C   0  0  0  0  0  0  0  0  0  0  0  0
    1.6550   -0.3194    0.6560 N   0  0  0  0  0  0  0  0  0  0  0  0
    2.1539   -1.1924   -0.2772 C   0  0  0  0  0  0  0  0  0  0  0  0
    3.1215   -0.5075   -0.9761 C   0  0  0  0  0  0  0  0  0  0  0  0
    4.1611   -1.2139   -2.3678 Br  0  0  0  0  0  0  0  0  0  0  0  0
    3.1751    0.8069   -0.4712 C   0  0  0  0  0  0  0  0  0  0  0  0
    4.2997    2.1865   -1.0615 Br  0  0  0  0  0  0  0  0  0  0  0  0
    2.2399    0.9153    0.5325 C   0  0  0  0  0  0  0  0  0  0  0  0
   -1.2837   -2.1876   -0.2097 H   0  0  0  0  0  0  0  0  0  0  0  0
   -3.2034   -1.5468   -1.6342 H   0  0  0  0  0  0  0  0  0  0  0  0
   -4.0762    0.7734   -1.5809 H   0  0  0  0  0  0  0  0  0  0  0  0
   -3.0395    2.4649   -0.0938 H   0  0  0  0  0  0  0  0  0  0  0  0
   -1.1187    1.8509    1.3410 H   0  0  0  0  0  0  0  0  0  0  0  0
    1.7934   -2.2104   -0.3533 H   0  0  0  0  0  0  0  0  0  0  0  0
    1.9547    1.7453    1.1663 H   0  0  0  0  0  0  0  0  0  0  0  0
  1  2  2  0
  2  3  2  0
  2  4  1  0
  4  5  2  0
  5  6  1  0
  6  7  2  0
  7  8  1  0
  8  9  2  0
  2 10  1  0
 10 11  1  0
 11 12  2  0
 12 13  1  0
 12 14  1  0
 14 15  1  0
 14 16  2  0
  9  4  1  0
 16 10  1  0
  5 17  1  0
  6 18  1  0
  7 19  1  0
  8 20  1  0
  9 21  1  0
 11 22  1  0
 16 23  1  0
M  END
