
     RDKit          3D

 21 22  0  0  0  0  0  0  0  0999 V2000
    4.5081    2.8346   -0.1847 Br  0  0  0  0  0  0  0  0  0  0  0  0
    3.3505    1.3489   -0.1012 C   0  0  0  0  0  0  0  0  0  0  0  0
    3.4828    0.3674    0.8411 N   0  0  0  0  0  0  0  0  0  0  0  0
    2.5008   -0.4567    0.5549 C   0  0  0  0  0  0  0  0  0  0  0  0
    2.1652   -2.0601    1.5268 Br  0  0  0  0  0  0  0  0  0  0  0  0
    1.8071    0.0209   -0.5203 N   0  0  0  0  0  0  0  0  0  0  0  0
    0.6745   -0.5765   -1.2044 C   0  0  0  0  0  0  0  0  0  0  0  0
   -0.6197   -0.3378   -0.4675 C   0  0  0  0  0  0  0  0  0  0  0  0
   -1.3530   -1.4139    0.0543 C   0  0  0  0  0  0  0  0  0  0  0  0
   -2.5512   -1.1906    0.7348 C   0  0  0  0  0  0  0  0  0  0  0  0
   -3.0321    0.1070    0.8964 C   0  0  0  0  0  0  0  0  0  0  0  0
   -2.3178    1.1836    0.3758 C   0  0  0  0  0  0  0  0  0  0  0  0
   -1.1198    0.9638   -0.3049 C   0  0  0  0  0  0  0  0  0  0  0  0
    2.3483    1.1750   -0.9690 N   0  0  0  0  0  0  0  0  0  0  0  0
    0.6153   -0.1485   -2.2122 H   0  0  0  0  0  0  0  0  0  0  0  0
    0.8866   -1.6451   -1.3212 H   0  0  0  0  0  0  0  0  0  0  0  0
   -1.0001   -2.4368   -0.0608 H   0  0  0  0  0  0  0  0  0  0  0  0
   -3.1113   -2.0298    1.1400 H   0  0  0  0  0  0  0  0  0  0  0  0
   -3.9648    0.2796    1.4274 H   0  0  0  0  0  0  0  0  0  0  0  0
   -2.6933    2.1963    0.5003 H   0  0  0  0  0  0  0  0  0  0  0  0
   -0.5759    1.8188   -0.7056 H   0  0  0  0  0  0  0  0  0  0  0  0
  1  2  1  0
  2  3  1  0
  3  4  2  0
  4  5  1  0
  4  6  1  0
  6  7  1  0
  7  8  1  0
  8  9  2  0
  9 10  1  0
 10 11  2  0
 11 12  1  0
 12 13  2  0
  6 14  1  0
 14  2  2  0
 13  8  1  0
  7 15  1  0
  7 16  1  0
  9 17  1  0
 10 18  1  0
 11 19  1  0
 12 20  1  0
 13 21  1  0
M  END
