
     RDKit          3D

 23 24  0  0  0  0  0  0  0  0999 V2000
    0.4919   -2.0900   -1.8041 O   0  0  0  0  0  0  0  0  0  0  0  0
    0.2721   -0.6643   -1.6561 S   0  0  0  0  0  0  0  0  0  0  0  0
    0.1184    0.2225   -2.7931 O   0  0  0  0  0  0  0  0  0  0  0  0
   -1.0665   -0.3984   -0.5288 C   0  0  0  0  0  0  0  0  0  0  0  0
   -1.7733    0.8072   -0.5683 C   0  0  0  0  0  0  0  0  0  0  0  0
   -2.8252    1.0134    0.3238 C   0  0  0  0  0  0  0  0  0  0  0  0
   -3.1698    0.0185    1.2403 C   0  0  0  0  0  0  0  0  0  0  0  0
   -2.4694   -1.1888    1.2657 C   0  0  0  0  0  0  0  0  0  0  0  0
   -1.4161   -1.4040    0.3774 C   0  0  0  0  0  0  0  0  0  0  0  0
    1.6210   -0.0797   -0.7985 N   0  0  0  0  0  0  0  0  0  0  0  0
    2.3361   -0.8177    0.1102 C   0  0  0  0  0  0  0  0  0  0  0  0
    3.2359    0.0446    0.6936 C   0  0  0  0  0  0  0  0  0  0  0  0
    4.4952   -0.4216    2.0026 Br  0  0  0  0  0  0  0  0  0  0  0  0
    3.0289    1.3261    0.1456 C   0  0  0  0  0  0  0  0  0  0  0  0
    3.9597    2.8937    0.5847 Br  0  0  0  0  0  0  0  0  0  0  0  0
    2.0042    1.2372   -0.7686 C   0  0  0  0  0  0  0  0  0  0  0  0
   -1.5204    1.5842   -1.2868 H   0  0  0  0  0  0  0  0  0  0  0  0
   -3.3824    1.9473    0.3025 H   0  0  0  0  0  0  0  0  0  0  0  0
   -3.9932    0.1814    1.9324 H   0  0  0  0  0  0  0  0  0  0  0  0
   -2.7506   -1.9637    1.9753 H   0  0  0  0  0  0  0  0  0  0  0  0
   -0.8843   -2.3530    0.3972 H   0  0  0  0  0  0  0  0  0  0  0  0
    2.1553   -1.8758    0.2512 H   0  0  0  0  0  0  0  0  0  0  0  0
    1.5324    1.9809   -1.3982 H   0  0  0  0  0  0  0  0  0  0  0  0
  1  2  2  0
  2  3  2  0
  2  4  1  0
  4  5  2  0
  5  6  1  0
  6  7  2  0
  7  8  1  0
  8  9  2  0
  2 10  1  0
 10 11  1  0
 11 12  2  0
 12 13  1  0
 12 14  1  0
 14 15  1  0
 14 16  2  0
  9  4  1  0
 16 10  1  0
  5 17  1  0
  6 18  1  0
  7 19  1  0
  8 20  1  0
  9 21  1  0
 11 22  1  0
 16 23  1  0
M  END
