
     RDKit          3D

 12 12  0  0  0  0  0  0  0  0999 V2000
   -2.8034   -0.0883   -0.0103 F   0  0  0  0  0  0  0  0  0  0  0  0
   -1.4655   -0.0461   -0.0054 C   0  0  0  0  0  0  0  0  0  0  0  0
   -0.7463   -1.2304    0.0701 C   0  0  0  0  0  0  0  0  0  0  0  0
    0.6510   -1.1888    0.0754 C   0  0  0  0  0  0  0  0  0  0  0  0
    1.5539   -2.8604    0.1813 Br  0  0  0  0  0  0  0  0  0  0  0  0
    1.3278    0.0418    0.0049 C   0  0  0  0  0  0  0  0  0  0  0  0
    3.0620    0.0964    0.0113 Cl  0  0  0  0  0  0  0  0  0  0  0  0
    0.5755    1.2275   -0.0708 C   0  0  0  0  0  0  0  0  0  0  0  0
    1.3722    2.9526   -0.1705 Br  0  0  0  0  0  0  0  0  0  0  0  0
   -0.8217    1.1811   -0.0758 C   0  0  0  0  0  0  0  0  0  0  0  0
   -1.2861   -2.1716    0.1238 H   0  0  0  0  0  0  0  0  0  0  0  0
   -1.4193    2.0864   -0.1338 H   0  0  0  0  0  0  0  0  0  0  0  0
  1  2  1  0
  2  3  2  0
  3  4  1  0
  4  5  1  0
  4  6  2  0
  6  7  1  0
  6  8  1  0
  8  9  1  0
  8 10  2  0
 10  2  1  0
  3 11  1  0
 10 12  1  0
M  END
