
     RDKit          3D

 17 18  0  0  0  0  0  0  0  0999 V2000
   -2.0305   -2.2587    0.0463 O   0  0  0  0  0  0  0  0  0  0  0  0
   -1.6243   -1.1129    0.0629 C   0  0  0  0  0  0  0  0  0  0  0  0
   -2.5005    0.0995    0.1644 C   0  0  0  0  0  0  0  0  0  0  0  0
   -1.5254    1.2382    0.1442 C   0  0  0  0  0  0  0  0  0  0  0  0
   -1.8341    2.4124    0.2078 O   0  0  0  0  0  0  0  0  0  0  0  0
   -0.1544    0.7048    0.0362 C   0  0  0  0  0  0  0  0  0  0  0  0
    1.0598    1.3848   -0.0165 C   0  0  0  0  0  0  0  0  0  0  0  0
    1.0960    3.2891    0.0522 Br  0  0  0  0  0  0  0  0  0  0  0  0
    2.2449    0.6227   -0.1210 C   0  0  0  0  0  0  0  0  0  0  0  0
    3.9446    1.5177   -0.1969 Br  0  0  0  0  0  0  0  0  0  0  0  0
    2.1851   -0.7989   -0.1702 C   0  0  0  0  0  0  0  0  0  0  0  0
    3.8040   -1.8259   -0.3125 Br  0  0  0  0  0  0  0  0  0  0  0  0
    0.9400   -1.4643   -0.1150 C   0  0  0  0  0  0  0  0  0  0  0  0
    0.8162   -3.3652   -0.1779 Br  0  0  0  0  0  0  0  0  0  0  0  0
   -0.2130   -0.6902   -0.0120 C   0  0  0  0  0  0  0  0  0  0  0  0
   -3.0459    0.0897    1.1105 H   0  0  0  0  0  0  0  0  0  0  0  0
   -3.1624    0.1573   -0.7023 H   0  0  0  0  0  0  0  0  0  0  0  0
  1  2  2  0
  2  3  1  0
  3  4  1  0
  4  5  2  0
  4  6  1  0
  6  7  2  0
  7  8  1  0
  7  9  1  0
  9 10  1  0
  9 11  2  0
 11 12  1  0
 11 13  1  0
 13 14  1  0
 13 15  2  0
 15  2  1  0
 15  6  1  0
  3 16  1  0
  3 17  1  0
M  END
