
     RDKit          3D

 41 46  0  0  0  0  0  0  0  0999 V2000
    2.3869    1.0233    4.8269 Br  0  0  0  0  0  0  0  0  0  0  0  0
    2.3239    0.9142    2.9392 C   0  0  0  0  0  0  0  0  0  0  0  0
    3.4607    1.2595    2.1909 C   0  0  0  0  0  0  0  0  0  0  0  0
    3.4421    1.1881    0.7934 C   0  0  0  0  0  0  0  0  0  0  0  0
    2.2786    0.7698    0.1675 C   0  0  0  0  0  0  0  0  0  0  0  0
    1.1384    0.4240    0.9292 C   0  0  0  0  0  0  0  0  0  0  0  0
    1.1494    0.4923    2.3170 C   0  0  0  0  0  0  0  0  0  0  0  0
   -0.0000   -0.0000   -0.0000 C   0  0  0  0  0  0  0  0  0  0  0  0
    0.6447    0.1515   -1.3786 C   0  0  0  0  0  0  0  0  0  0  0  0
    0.0913   -0.0919   -2.6297 C   0  0  0  0  0  0  0  0  0  0  0  0
    0.8931    0.1241   -3.7500 C   0  0  0  0  0  0  0  0  0  0  0  0
    0.1834   -0.1936   -5.4747 Br  0  0  0  0  0  0  0  0  0  0  0  0
    2.2174    0.5729   -3.6219 C   0  0  0  0  0  0  0  0  0  0  0  0
    2.7680    0.8158   -2.3584 C   0  0  0  0  0  0  0  0  0  0  0  0
    1.9775    0.6036   -1.2401 C   0  0  0  0  0  0  0  0  0  0  0  0
   -0.5152   -1.4131    0.2771 C   0  0  0  0  0  0  0  0  0  0  0  0
    0.1864   -2.6125    0.2685 C   0  0  0  0  0  0  0  0  0  0  0  0
   -0.5175   -3.7812    0.5571 C   0  0  0  0  0  0  0  0  0  0  0  0
    0.3949   -5.4384    0.5575 Br  0  0  0  0  0  0  0  0  0  0  0  0
   -1.8910   -3.7508    0.8473 C   0  0  0  0  0  0  0  0  0  0  0  0
   -2.5910   -2.5390    0.8540 C   0  0  0  0  0  0  0  0  0  0  0  0
   -1.8985   -1.3732    0.5683 C   0  0  0  0  0  0  0  0  0  0  0  0
   -2.3576   -0.0003    0.5044 C   0  0  0  0  0  0  0  0  0  0  0  0
   -3.6190    0.5349    0.7111 C   0  0  0  0  0  0  0  0  0  0  0  0
   -3.7870    1.9184    0.5837 C   0  0  0  0  0  0  0  0  0  0  0  0
   -2.6994    2.7430    0.2537 C   0  0  0  0  0  0  0  0  0  0  0  0
   -2.9653    4.6089    0.0903 Br  0  0  0  0  0  0  0  0  0  0  0  0
   -1.4271    2.2121    0.0441 C   0  0  0  0  0  0  0  0  0  0  0  0
   -1.2679    0.8376    0.1723 C   0  0  0  0  0  0  0  0  0  0  0  0
    4.3679    1.5864    2.6938 H   0  0  0  0  0  0  0  0  0  0  0  0
    4.3255    1.4570    0.2234 H   0  0  0  0  0  0  0  0  0  0  0  0
    0.2695    0.2249    2.8940 H   0  0  0  0  0  0  0  0  0  0  0  0
   -0.9328   -0.4389   -2.7269 H   0  0  0  0  0  0  0  0  0  0  0  0
    2.8277    0.7357   -4.5073 H   0  0  0  0  0  0  0  0  0  0  0  0
    3.7924    1.1626   -2.2693 H   0  0  0  0  0  0  0  0  0  0  0  0
    1.2483   -2.6341    0.0439 H   0  0  0  0  0  0  0  0  0  0  0  0
   -2.4234   -4.6728    1.0700 H   0  0  0  0  0  0  0  0  0  0  0  0
   -3.6524   -2.5254    1.0794 H   0  0  0  0  0  0  0  0  0  0  0  0
   -4.4655   -0.0943    0.9665 H   0  0  0  0  0  0  0  0  0  0  0  0
   -4.7722    2.3507    0.7435 H   0  0  0  0  0  0  0  0  0  0  0  0
   -0.5851    2.8481   -0.2111 H   0  0  0  0  0  0  0  0  0  0  0  0
  1  2  1  0
  2  3  2  0
  3  4  1  0
  4  5  2  0
  5  6  1  0
  6  7  2  0
  6  8  1  0
  8  9  1  0
  9 10  2  0
 10 11  1  0
 11 12  1  0
 11 13  2  0
 13 14  1  0
 14 15  2  0
  8 16  1  0
 16 17  2  0
 17 18  1  0
 18 19  1  0
 18 20  2  0
 20 21  1  0
 21 22  2  0
 22 23  1  0
 23 24  2  0
 24 25  1  0
 25 26  2  0
 26 27  1  0
 26 28  1  0
 28 29  2  0
  7  2  1  0
 29  8  1  0
 15  5  1  0
 22 16  1  0
 29 23  1  0
 15  9  1  0
  3 30  1  0
  4 31  1  0
  7 32  1  0
 10 33  1  0
 13 34  1  0
 14 35  1  0
 17 36  1  0
 20 37  1  0
 21 38  1  0
 24 39  1  0
 25 40  1  0
 28 41  1  0
M  END
