
     RDKit          3D

 41 46  0  0  0  0  0  0  0  0999 V2000
    1.3512    3.8554   -3.6542 Br  0  0  0  0  0  0  0  0  0  0  0  0
    1.7137    2.5072   -2.3775 C   0  0  0  0  0  0  0  0  0  0  0  0
    3.0465    2.1857   -2.0745 C   0  0  0  0  0  0  0  0  0  0  0  0
    3.3437    1.1927   -1.1342 C   0  0  0  0  0  0  0  0  0  0  0  0
    2.2944    0.5363   -0.5109 C   0  0  0  0  0  0  0  0  0  0  0  0
    0.9550    0.8666   -0.8222 C   0  0  0  0  0  0  0  0  0  0  0  0
    0.6523    1.8513   -1.7547 C   0  0  0  0  0  0  0  0  0  0  0  0
   -0.0000    0.0000    0.0001 C   0  0  0  0  0  0  0  0  0  0  0  0
    0.9718   -0.8578    0.8117 C   0  0  0  0  0  0  0  0  0  0  0  0
    0.6883   -1.8451    1.7475 C   0  0  0  0  0  0  0  0  0  0  0  0
    1.7624   -2.4914    2.3584 C   0  0  0  0  0  0  0  0  0  0  0  0
    1.4263   -3.8427    3.6391 Br  0  0  0  0  0  0  0  0  0  0  0  0
    3.0889   -2.1580    2.0408 C   0  0  0  0  0  0  0  0  0  0  0  0
    3.3666   -1.1625    1.0972 C   0  0  0  0  0  0  0  0  0  0  0  0
    2.3046   -0.5155    0.4856 C   0  0  0  0  0  0  0  0  0  0  0  0
   -0.9644   -0.8214   -0.8568 C   0  0  0  0  0  0  0  0  0  0  0  0
   -0.6725   -1.7544   -1.8443 C   0  0  0  0  0  0  0  0  0  0  0  0
   -1.7410   -2.3762   -2.4895 C   0  0  0  0  0  0  0  0  0  0  0  0
   -1.3932   -3.6536   -3.8409 Br  0  0  0  0  0  0  0  0  0  0  0  0
   -3.0702   -2.0719   -2.1548 C   0  0  0  0  0  0  0  0  0  0  0  0
   -3.3565   -1.1311   -1.1591 C   0  0  0  0  0  0  0  0  0  0  0  0
   -2.3001   -0.5088   -0.5132 C   0  0  0  0  0  0  0  0  0  0  0  0
   -2.2989    0.4879    0.5385 C   0  0  0  0  0  0  0  0  0  0  0  0
   -3.3538    1.1007    1.1958 C   0  0  0  0  0  0  0  0  0  0  0  0
   -3.0652    2.0441    2.1884 C   0  0  0  0  0  0  0  0  0  0  0  0
   -1.7351    2.3605    2.5086 C   0  0  0  0  0  0  0  0  0  0  0  0
   -1.3843    3.6411    3.8562 Br  0  0  0  0  0  0  0  0  0  0  0  0
   -0.6682    1.7483    1.8518 C   0  0  0  0  0  0  0  0  0  0  0  0
   -0.9624    0.8127    0.8675 C   0  0  0  0  0  0  0  0  0  0  0  0
    3.8614    2.7082   -2.5705 H   0  0  0  0  0  0  0  0  0  0  0  0
    4.3768    0.9512   -0.9065 H   0  0  0  0  0  0  0  0  0  0  0  0
   -0.3788    2.0985   -1.9877 H   0  0  0  0  0  0  0  0  0  0  0  0
   -0.3379   -2.1017    1.9919 H   0  0  0  0  0  0  0  0  0  0  0  0
    3.9139   -2.6731    2.5277 H   0  0  0  0  0  0  0  0  0  0  0  0
    4.3950   -0.9116    0.8581 H   0  0  0  0  0  0  0  0  0  0  0  0
    0.3559   -1.9884   -2.1018 H   0  0  0  0  0  0  0  0  0  0  0  0
   -3.8908   -2.5672   -2.6690 H   0  0  0  0  0  0  0  0  0  0  0  0
   -4.3870   -0.9024   -0.9072 H   0  0  0  0  0  0  0  0  0  0  0  0
   -4.3848    0.8627    0.9552 H   0  0  0  0  0  0  0  0  0  0  0  0
   -3.8845    2.5321    2.7115 H   0  0  0  0  0  0  0  0  0  0  0  0
    0.3608    1.9917    2.0981 H   0  0  0  0  0  0  0  0  0  0  0  0
  1  2  1  0
  2  3  2  0
  3  4  1  0
  4  5  2  0
  5  6  1  0
  6  7  2  0
  6  8  1  0
  8  9  1  0
  9 10  2  0
 10 11  1  0
 11 12  1  0
 11 13  2  0
 13 14  1  0
 14 15  2  0
  8 16  1  0
 16 17  2  0
 17 18  1  0
 18 19  1  0
 18 20  2  0
 20 21  1  0
 21 22  2  0
 22 23  1  0
 23 24  2  0
 24 25  1  0
 25 26  2  0
 26 27  1  0
 26 28  1  0
 28 29  2  0
  7  2  1  0
 29  8  1  0
 15  5  1  0
 22 16  1  0
 29 23  1  0
 15  9  1  0
  3 30  1  0
  4 31  1  0
  7 32  1  0
 10 33  1  0
 13 34  1  0
 14 35  1  0
 17 36  1  0
 20 37  1  0
 21 38  1  0
 24 39  1  0
 25 40  1  0
 28 41  1  0
M  END
