
     RDKit          3D

 22 23  0  0  0  0  0  0  0  0999 V2000
    0.7564    2.1527    1.9307 Br  0  0  0  0  0  0  0  0  0  0  0  0
    1.5262    0.8550    0.7714 C   0  0  0  0  0  0  0  0  0  0  0  0
    2.9236    0.7925    0.7174 C   0  0  0  0  0  0  0  0  0  0  0  0
    3.5523   -0.1328   -0.1147 C   0  0  0  0  0  0  0  0  0  0  0  0
    2.7880   -0.9958   -0.8944 C   0  0  0  0  0  0  0  0  0  0  0  0
    1.3937   -0.9346   -0.8417 C   0  0  0  0  0  0  0  0  0  0  0  0
    0.7360   -0.0115   -0.0070 C   0  0  0  0  0  0  0  0  0  0  0  0
   -0.7360    0.0115    0.0079 C   0  0  0  0  0  0  0  0  0  0  0  0
   -1.4133    0.8245   -0.9203 C   0  0  0  0  0  0  0  0  0  0  0  0
   -2.8086    0.8807   -0.9493 C   0  0  0  0  0  0  0  0  0  0  0  0
   -3.5542    0.1224   -0.0515 C   0  0  0  0  0  0  0  0  0  0  0  0
   -2.9059   -0.6930    0.8750 C   0  0  0  0  0  0  0  0  0  0  0  0
   -1.5076   -0.7503    0.9054 C   0  0  0  0  0  0  0  0  0  0  0  0
   -0.7104   -1.8948    2.1998 Br  0  0  0  0  0  0  0  0  0  0  0  0
    3.5307    1.4613    1.3224 H   0  0  0  0  0  0  0  0  0  0  0  0
    4.6377   -0.1805   -0.1528 H   0  0  0  0  0  0  0  0  0  0  0  0
    3.2750   -1.7200   -1.5429 H   0  0  0  0  0  0  0  0  0  0  0  0
    0.8125   -1.6205   -1.4561 H   0  0  0  0  0  0  0  0  0  0  0  0
   -0.8468    1.4279   -1.6280 H   0  0  0  0  0  0  0  0  0  0  0  0
   -3.3108    1.5192   -1.6719 H   0  0  0  0  0  0  0  0  0  0  0  0
   -4.6402    0.1665   -0.0713 H   0  0  0  0  0  0  0  0  0  0  0  0
   -3.4985   -1.2806    1.5719 H   0  0  0  0  0  0  0  0  0  0  0  0
  1  2  1  0
  2  3  2  0
  3  4  1  0
  4  5  2  0
  5  6  1  0
  6  7  2  0
  7  8  1  0
  8  9  2  0
  9 10  1  0
 10 11  2  0
 11 12  1  0
 12 13  2  0
 13 14  1  0
  7  2  1  0
 13  8  1  0
  3 15  1  0
  4 16  1  0
  5 17  1  0
  6 18  1  0
  9 19  1  0
 10 20  1  0
 11 21  1  0
 12 22  1  0
M  END
