
     RDKit          3D

 34 37  0  0  0  0  0  0  0  0999 V2000
    0.1817   -3.4222   -1.2512 Br  0  0  0  0  0  0  0  0  0  0  0  0
   -1.0572   -2.0947   -0.6719 C   0  0  0  0  0  0  0  0  0  0  0  0
   -2.3414   -2.5336   -0.3535 C   0  0  0  0  0  0  0  0  0  0  0  0
   -3.2995   -1.6234    0.0824 C   0  0  0  0  0  0  0  0  0  0  0  0
   -2.9928   -0.2633    0.2096 C   0  0  0  0  0  0  0  0  0  0  0  0
   -3.9772    0.6350    0.6538 C   0  0  0  0  0  0  0  0  0  0  0  0
   -3.7009    1.9936    0.7916 C   0  0  0  0  0  0  0  0  0  0  0  0
   -2.4349    2.4718    0.4865 C   0  0  0  0  0  0  0  0  0  0  0  0
   -1.4462    1.5904    0.0430 C   0  0  0  0  0  0  0  0  0  0  0  0
   -1.6912    0.2035   -0.1097 C   0  0  0  0  0  0  0  0  0  0  0  0
   -0.7046   -0.7309   -0.5616 C   0  0  0  0  0  0  0  0  0  0  0  0
    0.6681   -0.2741   -0.9081 C   0  0  0  0  0  0  0  0  0  0  0  0
    0.9850    0.1102   -2.2303 C   0  0  0  0  0  0  0  0  0  0  0  0
   -0.3032    0.0812   -3.6347 Br  0  0  0  0  0  0  0  0  0  0  0  0
    2.2688    0.5364   -2.5673 C   0  0  0  0  0  0  0  0  0  0  0  0
    3.2619    0.5898   -1.5940 C   0  0  0  0  0  0  0  0  0  0  0  0
    2.9912    0.2215   -0.2706 C   0  0  0  0  0  0  0  0  0  0  0  0
    4.0107    0.2864    0.6937 C   0  0  0  0  0  0  0  0  0  0  0  0
    3.7708   -0.0722    2.0184 C   0  0  0  0  0  0  0  0  0  0  0  0
    2.5066   -0.5007    2.3962 C   0  0  0  0  0  0  0  0  0  0  0  0
    1.4833   -0.5709    1.4480 C   0  0  0  0  0  0  0  0  0  0  0  0
    1.6908   -0.2153    0.0926 C   0  0  0  0  0  0  0  0  0  0  0  0
   -2.6079   -3.5838   -0.4426 H   0  0  0  0  0  0  0  0  0  0  0  0
   -4.2958   -1.9894    0.3233 H   0  0  0  0  0  0  0  0  0  0  0  0
   -4.9768    0.2806    0.8977 H   0  0  0  0  0  0  0  0  0  0  0  0
   -4.4742    2.6752    1.1358 H   0  0  0  0  0  0  0  0  0  0  0  0
   -2.2102    3.5301    0.5908 H   0  0  0  0  0  0  0  0  0  0  0  0
   -0.4672    2.0080   -0.1845 H   0  0  0  0  0  0  0  0  0  0  0  0
    2.5077    0.8285   -3.5868 H   0  0  0  0  0  0  0  0  0  0  0  0
    4.2570    0.9240   -1.8814 H   0  0  0  0  0  0  0  0  0  0  0  0
    5.0095    0.6192    0.4180 H   0  0  0  0  0  0  0  0  0  0  0  0
    4.5708   -0.0169    2.7518 H   0  0  0  0  0  0  0  0  0  0  0  0
    2.3102   -0.7826    3.4273 H   0  0  0  0  0  0  0  0  0  0  0  0
    0.5071   -0.9118    1.7877 H   0  0  0  0  0  0  0  0  0  0  0  0
  1  2  1  0
  2  3  2  0
  3  4  1  0
  4  5  2  0
  5  6  1  0
  6  7  2  0
  7  8  1  0
  8  9  2  0
  9 10  1  0
 10 11  2  0
 11 12  1  0
 12 13  2  0
 13 14  1  0
 13 15  1  0
 15 16  2  0
 16 17  1  0
 17 18  2  0
 18 19  1  0
 19 20  2  0
 20 21  1  0
 21 22  2  0
 11  2  1  0
 22 12  1  0
 10  5  1  0
 22 17  1  0
  3 23  1  0
  4 24  1  0
  6 25  1  0
  7 26  1  0
  8 27  1  0
  9 28  1  0
 15 29  1  0
 16 30  1  0
 18 31  1  0
 19 32  1  0
 20 33  1  0
 21 34  1  0
M  END
