
     RDKit          3D

 28 29  0  0  0  0  0  0  0  0999 V2000
   -4.6918   -1.6539   -0.5550 C   0  0  0  0  0  0  0  0  0  0  0  0
   -3.3231   -1.6373   -0.9419 O   0  0  0  0  0  0  0  0  0  0  0  0
   -2.5831   -0.5526   -0.5634 C   0  0  0  0  0  0  0  0  0  0  0  0
   -3.0239    0.5027    0.2363 C   0  0  0  0  0  0  0  0  0  0  0  0
   -2.1612    1.5610    0.5480 C   0  0  0  0  0  0  0  0  0  0  0  0
   -0.8480    1.5668    0.0714 C   0  0  0  0  0  0  0  0  0  0  0  0
    0.2396    3.0610    0.4978 Br  0  0  0  0  0  0  0  0  0  0  0  0
   -0.4002    0.4995   -0.7110 C   0  0  0  0  0  0  0  0  0  0  0  0
    0.9700    0.4252   -1.2484 C   0  0  0  0  0  0  0  0  0  0  0  0
    1.1229    0.5222   -2.4620 O   0  0  0  0  0  0  0  0  0  0  0  0
    2.1362    0.2020   -0.3503 C   0  0  0  0  0  0  0  0  0  0  0  0
    1.9884   -0.2869    0.9552 C   0  0  0  0  0  0  0  0  0  0  0  0
    3.1132   -0.4826    1.7604 C   0  0  0  0  0  0  0  0  0  0  0  0
    4.3858   -0.1980    1.2653 C   0  0  0  0  0  0  0  0  0  0  0  0
    4.5314    0.2778   -0.0370 C   0  0  0  0  0  0  0  0  0  0  0  0
    6.2584    0.6570   -0.7062 Br  0  0  0  0  0  0  0  0  0  0  0  0
    3.4161    0.4761   -0.8486 C   0  0  0  0  0  0  0  0  0  0  0  0
   -1.2706   -0.5476   -1.0397 C   0  0  0  0  0  0  0  0  0  0  0  0
   -5.2305   -0.7952   -0.9693 H   0  0  0  0  0  0  0  0  0  0  0  0
   -4.7916   -1.6957    0.5345 H   0  0  0  0  0  0  0  0  0  0  0  0
   -5.1444   -2.5614   -0.9661 H   0  0  0  0  0  0  0  0  0  0  0  0
   -4.0359    0.5388    0.6276 H   0  0  0  0  0  0  0  0  0  0  0  0
   -2.5316    2.3821    1.1583 H   0  0  0  0  0  0  0  0  0  0  0  0
    1.0111   -0.5306    1.3630 H   0  0  0  0  0  0  0  0  0  0  0  0
    2.9981   -0.8607    2.7736 H   0  0  0  0  0  0  0  0  0  0  0  0
    5.2558   -0.3534    1.8985 H   0  0  0  0  0  0  0  0  0  0  0  0
    3.5351    0.8460   -1.8650 H   0  0  0  0  0  0  0  0  0  0  0  0
   -0.9261   -1.3624   -1.6741 H   0  0  0  0  0  0  0  0  0  0  0  0
  1  2  1  0
  2  3  1  0
  3  4  2  0
  4  5  1  0
  5  6  2  0
  6  7  1  0
  6  8  1  0
  8  9  1  0
  9 10  2  0
  9 11  1  0
 11 12  2  0
 12 13  1  0
 13 14  2  0
 14 15  1  0
 15 16  1  0
 15 17  2  0
  8 18  2  0
 18  3  1  0
 17 11  1  0
  1 19  1  0
  1 20  1  0
  1 21  1  0
  4 22  1  0
  5 23  1  0
 12 24  1  0
 13 25  1  0
 14 26  1  0
 17 27  1  0
 18 28  1  0
M  END
