
     RDKit          3D

 24 25  0  0  0  0  0  0  0  0999 V2000
   -0.1605    1.3305    2.1354 O   0  0  0  0  0  0  0  0  0  0  0  0
   -0.0953    0.6998    1.0844 C   0  0  0  0  0  0  0  0  0  0  0  0
    1.2251    0.3547    0.4906 C   0  0  0  0  0  0  0  0  0  0  0  0
    1.3759   -0.6896   -0.4323 C   0  0  0  0  0  0  0  0  0  0  0  0
    2.6364   -0.9801   -0.9598 C   0  0  0  0  0  0  0  0  0  0  0  0
    3.7484   -0.2366   -0.5640 C   0  0  0  0  0  0  0  0  0  0  0  0
    3.5980    0.7936    0.3631 C   0  0  0  0  0  0  0  0  0  0  0  0
    5.1087    1.7944    0.9018 Br  0  0  0  0  0  0  0  0  0  0  0  0
    2.3452    1.0915    0.8956 C   0  0  0  0  0  0  0  0  0  0  0  0
   -1.3545    0.2549    0.4578 C   0  0  0  0  0  0  0  0  0  0  0  0
   -2.1388   -0.6502    1.1861 C   0  0  0  0  0  0  0  0  0  0  0  0
   -3.3374   -1.1221    0.6516 C   0  0  0  0  0  0  0  0  0  0  0  0
   -3.7601   -0.6832   -0.6024 C   0  0  0  0  0  0  0  0  0  0  0  0
   -2.9921    0.2376   -1.3196 C   0  0  0  0  0  0  0  0  0  0  0  0
   -1.7894    0.7163   -0.7898 C   0  0  0  0  0  0  0  0  0  0  0  0
   -0.8408    2.0139   -1.7985 Br  0  0  0  0  0  0  0  0  0  0  0  0
    0.5298   -1.2941   -0.7482 H   0  0  0  0  0  0  0  0  0  0  0  0
    2.7529   -1.7886   -1.6779 H   0  0  0  0  0  0  0  0  0  0  0  0
    4.7257   -0.4694   -0.9795 H   0  0  0  0  0  0  0  0  0  0  0  0
    2.2330    1.8952    1.6205 H   0  0  0  0  0  0  0  0  0  0  0  0
   -1.8174   -0.9825    2.1715 H   0  0  0  0  0  0  0  0  0  0  0  0
   -3.9454   -1.8249    1.2168 H   0  0  0  0  0  0  0  0  0  0  0  0
   -4.6982   -1.0463   -1.0166 H   0  0  0  0  0  0  0  0  0  0  0  0
   -3.3492    0.5853   -2.2866 H   0  0  0  0  0  0  0  0  0  0  0  0
  1  2  2  0
  2  3  1  0
  3  4  2  0
  4  5  1  0
  5  6  2  0
  6  7  1  0
  7  8  1  0
  7  9  2  0
  2 10  1  0
 10 11  2  0
 11 12  1  0
 12 13  2  0
 13 14  1  0
 14 15  2  0
 15 16  1  0
  9  3  1  0
 15 10  1  0
  4 17  1  0
  5 18  1  0
  6 19  1  0
  9 20  1  0
 11 21  1  0
 12 22  1  0
 13 23  1  0
 14 24  1  0
M  END
