
     RDKit          3D

 28 29  0  0  0  0  0  0  0  0999 V2000
    4.6652    1.6198   -0.6334 C   0  0  0  0  0  0  0  0  0  0  0  0
    3.3891    1.2882   -1.1671 O   0  0  0  0  0  0  0  0  0  0  0  0
    2.6079    0.4423   -0.4312 C   0  0  0  0  0  0  0  0  0  0  0  0
    2.9194   -0.0774    0.8259 C   0  0  0  0  0  0  0  0  0  0  0  0
    2.0285   -0.9425    1.4733 C   0  0  0  0  0  0  0  0  0  0  0  0
    0.8145   -1.2860    0.8734 C   0  0  0  0  0  0  0  0  0  0  0  0
   -0.3129   -2.5017    1.7946 Br  0  0  0  0  0  0  0  0  0  0  0  0
    0.4928   -0.7481   -0.3753 C   0  0  0  0  0  0  0  0  0  0  0  0
   -0.7697   -1.0510   -1.0729 C   0  0  0  0  0  0  0  0  0  0  0  0
   -0.7171   -1.7103   -2.1066 O   0  0  0  0  0  0  0  0  0  0  0  0
   -2.0717   -0.5413   -0.5607 C   0  0  0  0  0  0  0  0  0  0  0  0
   -3.2499   -1.1165   -1.0568 C   0  0  0  0  0  0  0  0  0  0  0  0
   -4.4951   -0.6736   -0.6076 C   0  0  0  0  0  0  0  0  0  0  0  0
   -4.5700    0.3504    0.3355 C   0  0  0  0  0  0  0  0  0  0  0  0
   -3.3982    0.9298    0.8205 C   0  0  0  0  0  0  0  0  0  0  0  0
   -3.5030    2.3243    2.0939 Br  0  0  0  0  0  0  0  0  0  0  0  0
   -2.1484    0.4955    0.3771 C   0  0  0  0  0  0  0  0  0  0  0  0
    1.3946    0.0996   -1.0312 C   0  0  0  0  0  0  0  0  0  0  0  0
    5.2845    0.7258   -0.5051 H   0  0  0  0  0  0  0  0  0  0  0  0
    4.5667    2.1715    0.3072 H   0  0  0  0  0  0  0  0  0  0  0  0
    5.1685    2.2736   -1.3521 H   0  0  0  0  0  0  0  0  0  0  0  0
    3.8514    0.1626    1.3284 H   0  0  0  0  0  0  0  0  0  0  0  0
    2.2997   -1.3494    2.4453 H   0  0  0  0  0  0  0  0  0  0  0  0
   -3.1995   -1.9162   -1.7945 H   0  0  0  0  0  0  0  0  0  0  0  0
   -5.4042   -1.1276   -0.9946 H   0  0  0  0  0  0  0  0  0  0  0  0
   -5.5428    0.6905    0.6816 H   0  0  0  0  0  0  0  0  0  0  0  0
   -1.2528    0.9745    0.7609 H   0  0  0  0  0  0  0  0  0  0  0  0
    1.1527    0.4933   -2.0167 H   0  0  0  0  0  0  0  0  0  0  0  0
  1  2  1  0
  2  3  1  0
  3  4  2  0
  4  5  1  0
  5  6  2  0
  6  7  1  0
  6  8  1  0
  8  9  1  0
  9 10  2  0
  9 11  1  0
 11 12  2  0
 12 13  1  0
 13 14  2  0
 14 15  1  0
 15 16  1  0
 15 17  2  0
  8 18  2  0
 18  3  1  0
 17 11  1  0
  1 19  1  0
  1 20  1  0
  1 21  1  0
  4 22  1  0
  5 23  1  0
 12 24  1  0
 13 25  1  0
 14 26  1  0
 17 27  1  0
 18 28  1  0
M  END
