
     RDKit          3D

  9  9  0  0  0  0  0  0  0  0999 V2000
    3.2592   -0.2765   -0.2417 Br  0  0  0  0  0  0  0  0  0  0  0  0
    1.3580   -0.3037   -0.0499 C   0  0  0  0  0  0  0  0  0  0  0  0
    0.5589    0.7921   -0.2677 C   0  0  0  0  0  0  0  0  0  0  0  0
   -0.8086    0.4670   -0.0474 C   0  0  0  0  0  0  0  0  0  0  0  0
   -2.1531    1.7756   -0.2695 Br  0  0  0  0  0  0  0  0  0  0  0  0
   -0.9824   -0.8432    0.3226 C   0  0  0  0  0  0  0  0  0  0  0  0
   -2.6556   -1.6862    0.7121 Br  0  0  0  0  0  0  0  0  0  0  0  0
    0.4927   -1.6897    0.4075 S   0  0  0  0  0  0  0  0  0  0  0  0
    0.9311    1.7646   -0.5659 H   0  0  0  0  0  0  0  0  0  0  0  0
  1  2  1  0
  2  3  2  0
  3  4  1  0
  4  5  1  0
  4  6  2  0
  6  7  1  0
  6  8  1  0
  8  2  1  0
  3  9  1  0
M  END
