
     RDKit          3D

 30 33  0  0  0  0  0  0  0  0999 V2000
    1.5173    2.3948   -0.3185 C   0  0  0  0  0  0  0  0  0  0  0  0
    0.7831    1.1824   -0.1649 C   0  0  0  0  0  0  0  0  0  0  0  0
    1.3880   -0.1111   -0.3158 C   0  0  0  0  0  0  0  0  0  0  0  0
    2.7682   -0.2800   -0.6304 C   0  0  0  0  0  0  0  0  0  0  0  0
    3.3792   -1.5284   -0.7822 C   0  0  0  0  0  0  0  0  0  0  0  0
    2.6184   -2.6691   -0.6219 C   0  0  0  0  0  0  0  0  0  0  0  0
    1.2610   -2.5398   -0.3128 C   0  0  0  0  0  0  0  0  0  0  0  0
    0.6056   -1.2842   -0.1509 C   0  0  0  0  0  0  0  0  0  0  0  0
   -0.7906   -1.1772    0.1667 C   0  0  0  0  0  0  0  0  0  0  0  0
   -1.6262   -2.3186    0.3440 C   0  0  0  0  0  0  0  0  0  0  0  0
   -2.9874   -2.2395    0.6533 C   0  0  0  0  0  0  0  0  0  0  0  0
   -3.5690   -0.9959    0.7984 C   0  0  0  0  0  0  0  0  0  0  0  0
   -2.7783    0.1451    0.6313 C   0  0  0  0  0  0  0  0  0  0  0  0
   -1.3887    0.1017    0.3159 C   0  0  0  0  0  0  0  0  0  0  0  0
   -0.5974    1.2882    0.1491 C   0  0  0  0  0  0  0  0  0  0  0  0
   -1.1419    2.5986    0.2865 C   0  0  0  0  0  0  0  0  0  0  0  0
   -0.3918    3.7679    0.1289 C   0  0  0  0  0  0  0  0  0  0  0  0
    0.9506    3.6650   -0.1765 C   0  0  0  0  0  0  0  0  0  0  0  0
    2.0860    5.1671   -0.4179 Br  0  0  0  0  0  0  0  0  0  0  0  0
   -1.2896    5.4258    0.3500 Br  0  0  0  0  0  0  0  0  0  0  0  0
   -5.4031   -0.7418    1.2169 Br  0  0  0  0  0  0  0  0  0  0  0  0
   -3.9407   -3.8691    0.8521 Br  0  0  0  0  0  0  0  0  0  0  0  0
    3.3171   -4.4253   -0.7990 Br  0  0  0  0  0  0  0  0  0  0  0  0
    5.2303   -1.5567   -1.2021 Br  0  0  0  0  0  0  0  0  0  0  0  0
    2.5764    2.3709   -0.5588 H   0  0  0  0  0  0  0  0  0  0  0  0
    3.4120    0.5841   -0.7672 H   0  0  0  0  0  0  0  0  0  0  0  0
    0.7091   -3.4684   -0.1976 H   0  0  0  0  0  0  0  0  0  0  0  0
   -1.2195   -3.3206    0.2411 H   0  0  0  0  0  0  0  0  0  0  0  0
   -3.2856    1.0974    0.7564 H   0  0  0  0  0  0  0  0  0  0  0  0
   -2.1924    2.7364    0.5261 H   0  0  0  0  0  0  0  0  0  0  0  0
  1  2  2  0
  2  3  1  0
  3  4  2  0
  4  5  1  0
  5  6  2  0
  6  7  1  0
  7  8  2  0
  8  9  1  0
  9 10  2  0
 10 11  1  0
 11 12  2  0
 12 13  1  0
 13 14  2  0
 14 15  1  0
 15 16  2  0
 16 17  1  0
 17 18  2  0
 18 19  1  0
 17 20  1  0
 12 21  1  0
 11 22  1  0
  6 23  1  0
  5 24  1  0
 18  1  1  0
 15  2  1  0
  8  3  1  0
 14  9  1  0
  1 25  1  0
  4 26  1  0
  7 27  1  0
 10 28  1  0
 13 29  1  0
 16 30  1  0
M  END
