
     RDKit          3D

 16 16  0  0  0  0  0  0  0  0999 V2000
   -2.4086   -0.6908    0.0884 C   0  0  0  0  0  0  0  0  0  0  0  0
   -0.9627   -0.2496    0.0134 C   0  0  0  0  0  0  0  0  0  0  0  0
   -0.6333    1.0973   -0.2966 C   0  0  0  0  0  0  0  0  0  0  0  0
   -2.0375    2.3770   -0.5741 Br  0  0  0  0  0  0  0  0  0  0  0  0
    0.7116    1.5083   -0.3748 C   0  0  0  0  0  0  0  0  0  0  0  0
    1.2061    3.3027   -0.8191 Br  0  0  0  0  0  0  0  0  0  0  0  0
    1.7328    0.5853   -0.1191 C   0  0  0  0  0  0  0  0  0  0  0  0
    3.0407    1.0011   -0.2058 O   0  0  0  0  0  0  0  0  0  0  0  0
    1.4320   -0.7368    0.2314 C   0  0  0  0  0  0  0  0  0  0  0  0
    2.8993   -1.9108    0.5889 Br  0  0  0  0  0  0  0  0  0  0  0  0
    0.0902   -1.1531    0.3110 C   0  0  0  0  0  0  0  0  0  0  0  0
   -0.3146   -2.9456    0.8620 Br  0  0  0  0  0  0  0  0  0  0  0  0
   -3.0353   -0.1760   -0.6450 H   0  0  0  0  0  0  0  0  0  0  0  0
   -2.5379   -1.7476   -0.1590 H   0  0  0  0  0  0  0  0  0  0  0  0
   -2.8037   -0.5084    1.0925 H   0  0  0  0  0  0  0  0  0  0  0  0
    3.6208    0.2470    0.0059 H   0  0  0  0  0  0  0  0  0  0  0  0
  1  2  1  0
  2  3  2  0
  3  4  1  0
  3  5  1  0
  5  6  1  0
  5  7  2  0
  7  8  1  0
  7  9  1  0
  9 10  1  0
  9 11  2  0
 11 12  1  0
 11  2  1  0
  1 13  1  0
  1 14  1  0
  1 15  1  0
  8 16  1  0
M  END
