
     RDKit          3D

 11 11  0  0  0  0  0  0  0  0999 V2000
   -2.8409    1.4899    0.0477 Br  0  0  0  0  0  0  0  0  0  0  0  0
   -1.2350    0.5052   -0.0054 C   0  0  0  0  0  0  0  0  0  0  0  0
   -1.2465   -0.8566   -0.2556 C   0  0  0  0  0  0  0  0  0  0  0  0
   -0.1282   -1.6170   -0.3063 N   0  0  0  0  0  0  0  0  0  0  0  0
    1.0599   -0.9919   -0.0977 C   0  0  0  0  0  0  0  0  0  0  0  0
    2.5891   -2.1234   -0.1837 Br  0  0  0  0  0  0  0  0  0  0  0  0
    1.1612    0.3759    0.1608 C   0  0  0  0  0  0  0  0  0  0  0  0
    2.8005    1.2814    0.4566 Br  0  0  0  0  0  0  0  0  0  0  0  0
   -0.0127    1.1326    0.2064 C   0  0  0  0  0  0  0  0  0  0  0  0
   -2.1738   -1.3966   -0.4280 H   0  0  0  0  0  0  0  0  0  0  0  0
    0.0266    2.2005    0.4051 H   0  0  0  0  0  0  0  0  0  0  0  0
  1  2  1  0
  2  3  2  0
  3  4  1  0
  4  5  2  0
  5  6  1  0
  5  7  1  0
  7  8  1  0
  7  9  2  0
  9  2  1  0
  3 10  1  0
  9 11  1  0
M  END
