
     RDKit          3D

 16 16  0  0  0  0  0  0  0  0999 V2000
   -2.5053   -0.0318    0.0934 C   0  0  0  0  0  0  0  0  0  0  0  0
   -0.9937   -0.0385    0.0159 C   0  0  0  0  0  0  0  0  0  0  0  0
   -0.2904   -1.2380   -0.2756 C   0  0  0  0  0  0  0  0  0  0  0  0
   -1.2663   -2.8728   -0.5244 Br  0  0  0  0  0  0  0  0  0  0  0  0
    1.1158   -1.2450   -0.3563 C   0  0  0  0  0  0  0  0  0  0  0  0
    2.1060   -2.8276   -0.7761 Br  0  0  0  0  0  0  0  0  0  0  0  0
    1.8278   -0.0626   -0.1214 C   0  0  0  0  0  0  0  0  0  0  0  0
    3.1999   -0.0849   -0.2102 O   0  0  0  0  0  0  0  0  0  0  0  0
    1.1590    1.1222    0.2107 C   0  0  0  0  0  0  0  0  0  0  0  0
    2.2259    2.6752    0.5406 Br  0  0  0  0  0  0  0  0  0  0  0  0
   -0.2457    1.1352    0.2927 C   0  0  0  0  0  0  0  0  0  0  0  0
   -1.1494    2.7436    0.8187 Br  0  0  0  0  0  0  0  0  0  0  0  0
   -2.9582   -0.7174   -0.6280 H   0  0  0  0  0  0  0  0  0  0  0  0
   -2.8292   -0.3040    1.1027 H   0  0  0  0  0  0  0  0  0  0  0  0
   -2.9344    0.9385   -0.1691 H   0  0  0  0  0  0  0  0  0  0  0  0
    3.5382    0.8079   -0.0138 H   0  0  0  0  0  0  0  0  0  0  0  0
  1  2  1  0
  2  3  2  0
  3  4  1  0
  3  5  1  0
  5  6  1  0
  5  7  2  0
  7  8  1  0
  7  9  1  0
  9 10  1  0
  9 11  2  0
 11 12  1  0
 11  2  1  0
  1 13  1  0
  1 14  1  0
  1 15  1  0
  8 16  1  0
M  END
