
     RDKit          3D

 15 15  0  0  0  0  0  0  0  0999 V2000
    2.8108    0.4687    1.0699 F   0  0  0  0  0  0  0  0  0  0  0  0
    2.2256   -0.2463    0.0714 C   0  0  0  0  0  0  0  0  0  0  0  0
    2.8413    0.1200   -1.0852 F   0  0  0  0  0  0  0  0  0  0  0  0
    2.6072   -1.5394    0.2860 F   0  0  0  0  0  0  0  0  0  0  0  0
    0.7261   -0.0756    0.0225 C   0  0  0  0  0  0  0  0  0  0  0  0
   -0.0912   -1.2119    0.1948 C   0  0  0  0  0  0  0  0  0  0  0  0
   -1.4789   -1.1038    0.1577 C   0  0  0  0  0  0  0  0  0  0  0  0
   -2.5466   -2.6450    0.3919 Br  0  0  0  0  0  0  0  0  0  0  0  0
   -2.0824    0.1297   -0.0505 C   0  0  0  0  0  0  0  0  0  0  0  0
   -1.2906    1.2696   -0.2237 C   0  0  0  0  0  0  0  0  0  0  0  0
   -2.2247    2.9054   -0.5016 Br  0  0  0  0  0  0  0  0  0  0  0  0
    0.1140    1.1767   -0.1888 C   0  0  0  0  0  0  0  0  0  0  0  0
    1.1923    2.7355   -0.4257 Br  0  0  0  0  0  0  0  0  0  0  0  0
    0.3646   -2.1888    0.3593 H   0  0  0  0  0  0  0  0  0  0  0  0
   -3.1673    0.2053   -0.0780 H   0  0  0  0  0  0  0  0  0  0  0  0
  1  2  1  0
  2  3  1  0
  2  4  1  0
  2  5  1  0
  5  6  2  0
  6  7  1  0
  7  8  1  0
  7  9  2  0
  9 10  1  0
 10 11  1  0
 10 12  2  0
 12 13  1  0
 12  5  1  0
  6 14  1  0
  9 15  1  0
M  END
