
     RDKit          3D

 12 13  0  0  0  0  0  0  0  0999 V2000
    0.2199   -0.0133   -0.6506 C   0  0  0  0  0  0  0  0  0  0  0  0
   -0.2199    0.0133    0.6506 C   0  0  0  0  0  0  0  0  0  0  0  0
   -1.6451    0.0151    0.7502 C   0  0  0  0  0  0  0  0  0  0  0  0
   -2.2189   -0.0104   -0.4934 C   0  0  0  0  0  0  0  0  0  0  0  0
   -1.1127   -0.0367   -1.7844 S   0  0  0  0  0  0  0  0  0  0  0  0
   -4.1113   -0.0176   -0.8294 Br  0  0  0  0  0  0  0  0  0  0  0  0
   -2.5455    0.0490    2.4134 Br  0  0  0  0  0  0  0  0  0  0  0  0
    1.1127    0.0367    1.7844 S   0  0  0  0  0  0  0  0  0  0  0  0
    2.2189    0.0104    0.4934 C   0  0  0  0  0  0  0  0  0  0  0  0
    1.6451   -0.0151   -0.7502 C   0  0  0  0  0  0  0  0  0  0  0  0
    2.5455   -0.0490   -2.4134 Br  0  0  0  0  0  0  0  0  0  0  0  0
    4.1113    0.0176    0.8294 Br  0  0  0  0  0  0  0  0  0  0  0  0
  1  2  2  0
  2  3  1  0
  3  4  2  0
  4  5  1  0
  4  6  1  0
  3  7  1  0
  2  8  1  0
  8  9  1  0
  9 10  2  0
 10 11  1  0
  9 12  1  0
  5  1  1  0
 10  1  1  0
M  END
