
     RDKit          3D

 11 11  0  0  0  0  0  0  0  0999 V2000
   -3.0726    0.9012    0.2005 Br  0  0  0  0  0  0  0  0  0  0  0  0
   -1.3043    0.2819   -0.0019 C   0  0  0  0  0  0  0  0  0  0  0  0
   -1.0147   -0.7694   -0.8552 C   0  0  0  0  0  0  0  0  0  0  0  0
    0.2332   -1.2583   -1.0428 N   0  0  0  0  0  0  0  0  0  0  0  0
    1.2426   -0.6725   -0.3471 C   0  0  0  0  0  0  0  0  0  0  0  0
    2.9692   -1.4117   -0.6608 Br  0  0  0  0  0  0  0  0  0  0  0  0
    1.0384    0.3912    0.5331 C   0  0  0  0  0  0  0  0  0  0  0  0
    2.4216    1.2326    1.5198 Br  0  0  0  0  0  0  0  0  0  0  0  0
   -0.2624    0.8724    0.7041 C   0  0  0  0  0  0  0  0  0  0  0  0
   -1.7910   -1.2667   -1.4307 H   0  0  0  0  0  0  0  0  0  0  0  0
   -0.4602    1.6994    1.3810 H   0  0  0  0  0  0  0  0  0  0  0  0
  1  2  1  0
  2  3  2  0
  3  4  1  0
  4  5  2  0
  5  6  1  0
  5  7  1  0
  7  8  1  0
  7  9  2  0
  9  2  1  0
  3 10  1  0
  9 11  1  0
M  END
