
     RDKit          3D

 12 12  0  0  0  0  0  0  0  0999 V2000
   -1.4463   -0.9862   -0.1289 C   0  0  0  0  0  0  0  0  0  0  0  0
   -0.3147   -0.0091   -0.0598 C   0  0  0  0  0  0  0  0  0  0  0  0
   -0.3909    1.3535   -0.2855 C   0  0  0  0  0  0  0  0  0  0  0  0
   -1.9878    2.3157   -0.7451 Br  0  0  0  0  0  0  0  0  0  0  0  0
    1.0914    2.1686   -0.1231 S   0  0  0  0  0  0  0  0  0  0  0  0
    1.8933    0.7240    0.2564 C   0  0  0  0  0  0  0  0  0  0  0  0
    3.7716    0.6857    0.6279 Br  0  0  0  0  0  0  0  0  0  0  0  0
    1.0467   -0.3567    0.2589 C   0  0  0  0  0  0  0  0  0  0  0  0
    1.5577   -2.1466    0.6353 Br  0  0  0  0  0  0  0  0  0  0  0  0
   -1.5789   -1.4820    0.8385 H   0  0  0  0  0  0  0  0  0  0  0  0
   -2.3992   -0.5179   -0.3868 H   0  0  0  0  0  0  0  0  0  0  0  0
   -1.2430   -1.7491   -0.8878 H   0  0  0  0  0  0  0  0  0  0  0  0
  1  2  1  0
  2  3  2  0
  3  4  1  0
  3  5  1  0
  5  6  1  0
  6  7  1  0
  6  8  2  0
  8  9  1  0
  8  2  1  0
  1 10  1  0
  1 11  1  0
  1 12  1  0
M  END
