
     RDKit          3D

 11 11  0  0  0  0  0  0  0  0999 V2000
    2.3487    1.9824    0.1506 Br  0  0  0  0  0  0  0  0  0  0  0  0
    0.9731    0.6820    0.0579 C   0  0  0  0  0  0  0  0  0  0  0  0
   -0.3472    1.1350    0.0245 C   0  0  0  0  0  0  0  0  0  0  0  0
   -1.3897    0.2153   -0.0437 C   0  0  0  0  0  0  0  0  0  0  0  0
   -1.0737   -1.1314   -0.0762 C   0  0  0  0  0  0  0  0  0  0  0  0
    0.1899   -1.6040   -0.0456 N   0  0  0  0  0  0  0  0  0  0  0  0
    1.1961   -0.6936    0.0210 C   0  0  0  0  0  0  0  0  0  0  0  0
    2.9498   -1.4366    0.0606 Br  0  0  0  0  0  0  0  0  0  0  0  0
   -0.5725    2.1982    0.0511 H   0  0  0  0  0  0  0  0  0  0  0  0
   -2.4237    0.5421   -0.0707 H   0  0  0  0  0  0  0  0  0  0  0  0
   -1.8509   -1.8893   -0.1294 H   0  0  0  0  0  0  0  0  0  0  0  0
  1  2  1  0
  2  3  2  0
  3  4  1  0
  4  5  2  0
  5  6  1  0
  6  7  2  0
  7  8  1  0
  7  2  1  0
  3  9  1  0
  4 10  1  0
  5 11  1  0
M  END
