
     RDKit          3D

 11 11  0  0  0  0  0  0  0  0999 V2000
    2.9214   -1.3303   -0.0275 Cl  0  0  0  0  0  0  0  0  0  0  0  0
    1.3488   -0.6493   -0.0125 C   0  0  0  0  0  0  0  0  0  0  0  0
    1.1702    0.7223   -0.0182 C   0  0  0  0  0  0  0  0  0  0  0  0
   -0.1338    1.2093   -0.0053 C   0  0  0  0  0  0  0  0  0  0  0  0
   -1.2034    0.3115    0.0127 C   0  0  0  0  0  0  0  0  0  0  0  0
   -2.9560    1.0318    0.0296 Br  0  0  0  0  0  0  0  0  0  0  0  0
   -0.9164   -1.0546    0.0170 C   0  0  0  0  0  0  0  0  0  0  0  0
   -2.2905   -2.3742    0.0410 Br  0  0  0  0  0  0  0  0  0  0  0  0
    0.3468   -1.5476    0.0046 N   0  0  0  0  0  0  0  0  0  0  0  0
    2.0183    1.3980   -0.0322 H   0  0  0  0  0  0  0  0  0  0  0  0
   -0.3054    2.2830   -0.0093 H   0  0  0  0  0  0  0  0  0  0  0  0
  1  2  1  0
  2  3  2  0
  3  4  1  0
  4  5  2  0
  5  6  1  0
  5  7  1  0
  7  8  1  0
  7  9  2  0
  9  2  1  0
  3 10  1  0
  4 11  1  0
M  END
