
     RDKit          3D

 14 14  0  0  0  0  0  0  0  0999 V2000
    2.0200   -0.0282   -0.0390 C   0  0  0  0  0  0  0  0  0  0  0  0
    0.5166   -0.0453    0.0041 C   0  0  0  0  0  0  0  0  0  0  0  0
   -0.1315   -1.2054    0.4475 C   0  0  0  0  0  0  0  0  0  0  0  0
   -1.5146   -1.2302    0.4904 C   0  0  0  0  0  0  0  0  0  0  0  0
   -2.2901   -0.1921    0.1268 N   0  0  0  0  0  0  0  0  0  0  0  0
   -1.6624    0.9324   -0.3030 C   0  0  0  0  0  0  0  0  0  0  0  0
   -2.8442    2.3477   -0.7958 Br  0  0  0  0  0  0  0  0  0  0  0  0
   -0.2701    1.0558   -0.3826 C   0  0  0  0  0  0  0  0  0  0  0  0
    0.5690    2.6550   -0.9925 Br  0  0  0  0  0  0  0  0  0  0  0  0
    2.4141    0.7533    0.6185 H   0  0  0  0  0  0  0  0  0  0  0  0
    2.3730    0.1337   -1.0624 H   0  0  0  0  0  0  0  0  0  0  0  0
    2.4411   -0.9805    0.3017 H   0  0  0  0  0  0  0  0  0  0  0  0
    0.4284   -2.0830    0.7573 H   0  0  0  0  0  0  0  0  0  0  0  0
   -2.0494   -2.1135    0.8291 H   0  0  0  0  0  0  0  0  0  0  0  0
  1  2  1  0
  2  3  2  0
  3  4  1  0
  4  5  2  0
  5  6  1  0
  6  7  1  0
  6  8  2  0
  8  9  1  0
  8  2  1  0
  1 10  1  0
  1 11  1  0
  1 12  1  0
  3 13  1  0
  4 14  1  0
M  END
