
     RDKit          3D

 18 18  0  0  0  0  0  0  0  0999 V2000
   -2.7775   -0.4940    0.3203 C   0  0  0  0  0  0  0  0  0  0  0  0
   -1.9084    0.6288    0.2090 O   0  0  0  0  0  0  0  0  0  0  0  0
   -0.5703    0.3703    0.0604 C   0  0  0  0  0  0  0  0  0  0  0  0
    0.0188   -0.8887    0.0080 C   0  0  0  0  0  0  0  0  0  0  0  0
    1.4112   -1.0149   -0.1483 C   0  0  0  0  0  0  0  0  0  0  0  0
    1.9520   -2.3445   -0.1944 C   0  0  0  0  0  0  0  0  0  0  0  0
    2.3469   -3.4351   -0.2266 N   0  0  0  0  0  0  0  0  0  0  0  0
    2.2237    0.1300   -0.2534 C   0  0  0  0  0  0  0  0  0  0  0  0
    4.1139   -0.0767   -0.4652 Br  0  0  0  0  0  0  0  0  0  0  0  0
    1.6321    1.4033   -0.2010 C   0  0  0  0  0  0  0  0  0  0  0  0
    2.6559    3.0083   -0.3353 Br  0  0  0  0  0  0  0  0  0  0  0  0
    0.2429    1.5065   -0.0447 C   0  0  0  0  0  0  0  0  0  0  0  0
   -0.3599    2.7401    0.0094 O   0  0  0  0  0  0  0  0  0  0  0  0
   -3.7983   -0.1160    0.4317 H   0  0  0  0  0  0  0  0  0  0  0  0
   -2.7453   -1.1077   -0.5858 H   0  0  0  0  0  0  0  0  0  0  0  0
   -2.5419   -1.0872    1.2100 H   0  0  0  0  0  0  0  0  0  0  0  0
   -0.5795   -1.7934    0.0861 H   0  0  0  0  0  0  0  0  0  0  0  0
   -1.3161    2.5710    0.1197 H   0  0  0  0  0  0  0  0  0  0  0  0
  1  2  1  0
  2  3  1  0
  3  4  2  0
  4  5  1  0
  5  6  1  0
  6  7  3  0
  5  8  2  0
  8  9  1  0
  8 10  1  0
 10 11  1  0
 10 12  2  0
 12 13  1  0
 12  3  1  0
  1 14  1  0
  1 15  1  0
  1 16  1  0
  4 17  1  0
 13 18  1  0
M  END
