
     RDKit          3D

 15 15  0  0  0  0  0  0  0  0999 V2000
    2.0404   -2.4018   -0.3807 F   0  0  0  0  0  0  0  0  0  0  0  0
    1.3861   -1.2461   -0.2147 C   0  0  0  0  0  0  0  0  0  0  0  0
    2.1007   -0.0638   -0.1177 C   0  0  0  0  0  0  0  0  0  0  0  0
    1.4163    1.1416    0.0555 C   0  0  0  0  0  0  0  0  0  0  0  0
    2.4915    2.7076    0.1773 Br  0  0  0  0  0  0  0  0  0  0  0  0
    0.0088    1.1591    0.1315 C   0  0  0  0  0  0  0  0  0  0  0  0
   -0.9254    2.8082    0.3684 Br  0  0  0  0  0  0  0  0  0  0  0  0
   -0.7131   -0.0490    0.0319 C   0  0  0  0  0  0  0  0  0  0  0  0
   -2.2196   -0.1033    0.1049 C   0  0  0  0  0  0  0  0  0  0  0  0
   -2.7125    0.3628    1.2841 F   0  0  0  0  0  0  0  0  0  0  0  0
   -2.8264    0.6095   -0.8822 F   0  0  0  0  0  0  0  0  0  0  0  0
   -2.7120   -1.3709   -0.0135 F   0  0  0  0  0  0  0  0  0  0  0  0
   -0.0003   -1.2511   -0.1424 C   0  0  0  0  0  0  0  0  0  0  0  0
    3.1847   -0.0979   -0.1786 H   0  0  0  0  0  0  0  0  0  0  0  0
   -0.5190   -2.2051   -0.2238 H   0  0  0  0  0  0  0  0  0  0  0  0
  1  2  1  0
  2  3  2  0
  3  4  1  0
  4  5  1  0
  4  6  2  0
  6  7  1  0
  6  8  1  0
  8  9  1  0
  9 10  1  0
  9 11  1  0
  9 12  1  0
  8 13  2  0
 13  2  1  0
  3 14  1  0
 13 15  1  0
M  END
