
     RDKit          3D

 17 17  0  0  0  0  0  0  0  0999 V2000
    2.6605   -0.6745   -0.3540 C   0  0  0  0  0  0  0  0  0  0  0  0
    1.3386   -0.0250   -0.0730 C   0  0  0  0  0  0  0  0  0  0  0  0
    0.1568   -0.7350   -0.2535 C   0  0  0  0  0  0  0  0  0  0  0  0
   -1.0732   -0.1169    0.0127 C   0  0  0  0  0  0  0  0  0  0  0  0
   -2.3379   -0.9053   -0.1901 C   0  0  0  0  0  0  0  0  0  0  0  0
   -1.0697    1.2162    0.4585 C   0  0  0  0  0  0  0  0  0  0  0  0
   -2.7174    2.0980    0.8330 Br  0  0  0  0  0  0  0  0  0  0  0  0
    0.1649    1.8543    0.6124 C   0  0  0  0  0  0  0  0  0  0  0  0
    0.3152    3.6609    1.2095 Br  0  0  0  0  0  0  0  0  0  0  0  0
    1.3552    1.2544    0.3543 N   0  0  0  0  0  0  0  0  0  0  0  0
    2.7139   -0.9847   -1.4022 H   0  0  0  0  0  0  0  0  0  0  0  0
    2.7955   -1.5503    0.2883 H   0  0  0  0  0  0  0  0  0  0  0  0
    3.4848    0.0198   -0.1616 H   0  0  0  0  0  0  0  0  0  0  0  0
    0.1963   -1.7647   -0.5998 H   0  0  0  0  0  0  0  0  0  0  0  0
   -2.8884   -0.9969    0.7516 H   0  0  0  0  0  0  0  0  0  0  0  0
   -2.9703   -0.4290   -0.9459 H   0  0  0  0  0  0  0  0  0  0  0  0
   -2.1250   -1.9214   -0.5402 H   0  0  0  0  0  0  0  0  0  0  0  0
  1  2  1  0
  2  3  2  0
  3  4  1  0
  4  5  1  0
  4  6  2  0
  6  7  1  0
  6  8  1  0
  8  9  1  0
  8 10  2  0
 10  2  1  0
  1 11  1  0
  1 12  1  0
  1 13  1  0
  3 14  1  0
  5 15  1  0
  5 16  1  0
  5 17  1  0
M  END
