
     RDKit          3D

 14 14  0  0  0  0  0  0  0  0999 V2000
   -2.1472    0.3100    0.0779 C   0  0  0  0  0  0  0  0  0  0  0  0
   -0.6899   -0.0202    0.0084 C   0  0  0  0  0  0  0  0  0  0  0  0
   -0.2544   -1.2541   -0.4569 C   0  0  0  0  0  0  0  0  0  0  0  0
    1.0454   -1.6028   -0.5728 N   0  0  0  0  0  0  0  0  0  0  0  0
    1.9738   -0.6778   -0.2194 C   0  0  0  0  0  0  0  0  0  0  0  0
    3.7830   -1.2434   -0.4086 Br  0  0  0  0  0  0  0  0  0  0  0  0
    1.6393    0.5926    0.2441 C   0  0  0  0  0  0  0  0  0  0  0  0
    2.9058    1.9139    0.7371 Br  0  0  0  0  0  0  0  0  0  0  0  0
    0.2852    0.9194    0.3515 C   0  0  0  0  0  0  0  0  0  0  0  0
   -2.3481    1.0200    0.8871 H   0  0  0  0  0  0  0  0  0  0  0  0
   -2.4778    0.7497   -0.8681 H   0  0  0  0  0  0  0  0  0  0  0  0
   -2.7425   -0.5871    0.2779 H   0  0  0  0  0  0  0  0  0  0  0  0
   -0.9590   -2.0250   -0.7605 H   0  0  0  0  0  0  0  0  0  0  0  0
   -0.0136    1.9048    0.7025 H   0  0  0  0  0  0  0  0  0  0  0  0
  1  2  1  0
  2  3  2  0
  3  4  1  0
  4  5  2  0
  5  6  1  0
  5  7  1  0
  7  8  1  0
  7  9  2  0
  9  2  1  0
  1 10  1  0
  1 11  1  0
  1 12  1  0
  3 13  1  0
  9 14  1  0
M  END
