
     RDKit          3D

 20 20  0  0  0  0  0  0  0  0999 V2000
    3.4662    0.1737   -0.8359 C   0  0  0  0  0  0  0  0  0  0  0  0
    2.7922   -0.4506    0.2484 O   0  0  0  0  0  0  0  0  0  0  0  0
    1.4271   -0.3349    0.3157 C   0  0  0  0  0  0  0  0  0  0  0  0
    0.6594    0.3615   -0.6203 C   0  0  0  0  0  0  0  0  0  0  0  0
   -0.7306    0.4386   -0.4888 C   0  0  0  0  0  0  0  0  0  0  0  0
   -1.3814   -0.1792    0.5813 C   0  0  0  0  0  0  0  0  0  0  0  0
   -2.7393   -0.1439    0.7716 O   0  0  0  0  0  0  0  0  0  0  0  0
   -3.5316    0.5616   -0.1741 C   0  0  0  0  0  0  0  0  0  0  0  0
   -0.6180   -0.8851    1.5328 C   0  0  0  0  0  0  0  0  0  0  0  0
   -1.5304   -1.7255    2.9934 Br  0  0  0  0  0  0  0  0  0  0  0  0
    0.7824   -0.9628    1.4004 C   0  0  0  0  0  0  0  0  0  0  0  0
    1.8540   -1.9131    2.6733 Br  0  0  0  0  0  0  0  0  0  0  0  0
    4.5364   -0.0246   -0.7227 H   0  0  0  0  0  0  0  0  0  0  0  0
    3.3254    1.2593   -0.8156 H   0  0  0  0  0  0  0  0  0  0  0  0
    3.1492   -0.2503   -1.7943 H   0  0  0  0  0  0  0  0  0  0  0  0
    1.1106    0.8611   -1.4721 H   0  0  0  0  0  0  0  0  0  0  0  0
   -1.2756    0.9934   -1.2464 H   0  0  0  0  0  0  0  0  0  0  0  0
   -4.5769    0.4805    0.1392 H   0  0  0  0  0  0  0  0  0  0  0  0
   -3.2714    1.6250   -0.1917 H   0  0  0  0  0  0  0  0  0  0  0  0
   -3.4477    0.1153   -1.1703 H   0  0  0  0  0  0  0  0  0  0  0  0
  1  2  1  0
  2  3  1  0
  3  4  2  0
  4  5  1  0
  5  6  2  0
  6  7  1  0
  7  8  1  0
  6  9  1  0
  9 10  1  0
  9 11  2  0
 11 12  1  0
 11  3  1  0
  1 13  1  0
  1 14  1  0
  1 15  1  0
  4 16  1  0
  5 17  1  0
  8 18  1  0
  8 19  1  0
  8 20  1  0
M  END
