
     RDKit          3D

 15 15  0  0  0  0  0  0  0  0999 V2000
   -3.4024   -0.3737   -0.0818 N   0  0  0  0  0  0  0  0  0  0  0  0
   -2.0047   -0.5358   -0.2232 N   0  0  0  0  0  0  0  0  0  0  0  0
   -1.1213    0.3242    0.4281 C   0  0  0  0  0  0  0  0  0  0  0  0
   -1.5358    1.2152    1.1709 O   0  0  0  0  0  0  0  0  0  0  0  0
    0.2955    0.1048    0.1725 C   0  0  0  0  0  0  0  0  0  0  0  0
    1.3503    0.8315    0.7016 C   0  0  0  0  0  0  0  0  0  0  0  0
    2.6102    0.3576    0.2491 C   0  0  0  0  0  0  0  0  0  0  0  0
    4.2103    1.1792    0.8250 Br  0  0  0  0  0  0  0  0  0  0  0  0
    2.4868   -0.7064   -0.6039 C   0  0  0  0  0  0  0  0  0  0  0  0
    3.9294   -1.6445   -1.4416 Br  0  0  0  0  0  0  0  0  0  0  0  0
    0.8648   -1.1396   -0.8646 S   0  0  0  0  0  0  0  0  0  0  0  0
   -3.5868    0.6376   -0.0505 H   0  0  0  0  0  0  0  0  0  0  0  0
   -3.6524   -0.6839    0.8632 H   0  0  0  0  0  0  0  0  0  0  0  0
   -1.6475   -1.2299   -0.8768 H   0  0  0  0  0  0  0  0  0  0  0  0
    1.2035    1.6637    1.3822 H   0  0  0  0  0  0  0  0  0  0  0  0
  1  2  1  0
  2  3  1  0
  3  4  2  0
  3  5  1  0
  5  6  2  0
  6  7  1  0
  7  8  1  0
  7  9  2  0
  9 10  1  0
  9 11  1  0
 11  5  1  0
  1 12  1  0
  1 13  1  0
  2 14  1  0
  6 15  1  0
M  END
