
     RDKit          3D

  9  9  0  0  0  0  0  0  0  0999 V2000
    1.6912    2.1594   -0.0154 Br  0  0  0  0  0  0  0  0  0  0  0  0
    0.6185    0.6043    0.0182 C   0  0  0  0  0  0  0  0  0  0  0  0
   -0.7825    0.6885   -0.2095 C   0  0  0  0  0  0  0  0  0  0  0  0
   -1.3832   -0.5519   -0.1433 C   0  0  0  0  0  0  0  0  0  0  0  0
   -0.2514   -1.7956    0.1915 S   0  0  0  0  0  0  0  0  0  0  0  0
    1.0338   -0.6820    0.2475 C   0  0  0  0  0  0  0  0  0  0  0  0
    2.8333   -1.2332    0.5968 Br  0  0  0  0  0  0  0  0  0  0  0  0
   -1.3297    1.6015   -0.4113 H   0  0  0  0  0  0  0  0  0  0  0  0
   -2.4300   -0.7910   -0.2746 H   0  0  0  0  0  0  0  0  0  0  0  0
  1  2  1  0
  2  3  1  0
  3  4  2  0
  4  5  1  0
  5  6  1  0
  6  7  1  0
  6  2  2  0
  3  8  1  0
  4  9  1  0
M  END
