
     RDKit          3D

 15 15  0  0  0  0  0  0  0  0999 V2000
   -2.2326   -0.2067    0.1602 C   0  0  0  0  0  0  0  0  0  0  0  0
   -0.7361   -0.0831    0.0538 C   0  0  0  0  0  0  0  0  0  0  0  0
    0.0355   -1.2564    0.0777 C   0  0  0  0  0  0  0  0  0  0  0  0
    1.4201   -1.1898   -0.0178 C   0  0  0  0  0  0  0  0  0  0  0  0
    2.1362   -2.3210    0.0071 F   0  0  0  0  0  0  0  0  0  0  0  0
    2.0716    0.0277   -0.1382 C   0  0  0  0  0  0  0  0  0  0  0  0
    1.3246    1.2078   -0.1641 C   0  0  0  0  0  0  0  0  0  0  0  0
    2.3095    2.8274   -0.3321 Br  0  0  0  0  0  0  0  0  0  0  0  0
   -0.0796    1.1619   -0.0687 C   0  0  0  0  0  0  0  0  0  0  0  0
   -1.1158    2.7668   -0.1027 Br  0  0  0  0  0  0  0  0  0  0  0  0
   -2.5429   -1.2538    0.2472 H   0  0  0  0  0  0  0  0  0  0  0  0
   -2.7159    0.2000   -0.7338 H   0  0  0  0  0  0  0  0  0  0  0  0
   -2.5983    0.3135    1.0512 H   0  0  0  0  0  0  0  0  0  0  0  0
   -0.4311   -2.2340    0.1706 H   0  0  0  0  0  0  0  0  0  0  0  0
    3.1548    0.0396   -0.2103 H   0  0  0  0  0  0  0  0  0  0  0  0
  1  2  1  0
  2  3  2  0
  3  4  1  0
  4  5  1  0
  4  6  2  0
  6  7  1  0
  7  8  1  0
  7  9  2  0
  9 10  1  0
  9  2  1  0
  1 11  1  0
  1 12  1  0
  1 13  1  0
  3 14  1  0
  6 15  1  0
M  END
