
     RDKit          3D

 12 12  0  0  0  0  0  0  0  0999 V2000
   -1.3565   -2.4587    0.1494 F   0  0  0  0  0  0  0  0  0  0  0  0
   -0.7140   -1.2862    0.0832 C   0  0  0  0  0  0  0  0  0  0  0  0
   -1.0122   -0.2924    1.0029 C   0  0  0  0  0  0  0  0  0  0  0  0
   -0.3428    0.9321    0.9357 C   0  0  0  0  0  0  0  0  0  0  0  0
   -0.7749    2.1173    2.1210 Cl  0  0  0  0  0  0  0  0  0  0  0  0
    0.6284    1.1612   -0.0564 C   0  0  0  0  0  0  0  0  0  0  0  0
    1.5391    2.8374   -0.1419 Br  0  0  0  0  0  0  0  0  0  0  0  0
    0.9129    0.1374   -0.9776 C   0  0  0  0  0  0  0  0  0  0  0  0
    2.2000    0.3091   -2.3685 Br  0  0  0  0  0  0  0  0  0  0  0  0
    0.2393   -1.0858   -0.9046 C   0  0  0  0  0  0  0  0  0  0  0  0
   -1.7639   -0.4822    1.7635 H   0  0  0  0  0  0  0  0  0  0  0  0
    0.4446   -1.8891   -1.6068 H   0  0  0  0  0  0  0  0  0  0  0  0
  1  2  1  0
  2  3  2  0
  3  4  1  0
  4  5  1  0
  4  6  2  0
  6  7  1  0
  6  8  1  0
  8  9  1  0
  8 10  2  0
 10  2  1  0
  3 11  1  0
 10 12  1  0
M  END
