
     RDKit          3D

 20 20  0  0  0  0  0  0  0  0999 V2000
    3.4573    0.9421    0.0671 C   0  0  0  0  0  0  0  0  0  0  0  0
    2.8076   -0.2885   -0.2216 O   0  0  0  0  0  0  0  0  0  0  0  0
    1.4390   -0.3329   -0.1423 C   0  0  0  0  0  0  0  0  0  0  0  0
    0.6451    0.7620    0.2060 C   0  0  0  0  0  0  0  0  0  0  0  0
   -0.7469    0.6444    0.2671 C   0  0  0  0  0  0  0  0  0  0  0  0
   -1.3736   -0.5705   -0.0188 C   0  0  0  0  0  0  0  0  0  0  0  0
   -2.7320   -0.7564    0.0216 O   0  0  0  0  0  0  0  0  0  0  0  0
   -3.5508    0.3502    0.3748 C   0  0  0  0  0  0  0  0  0  0  0  0
   -0.5837   -1.6831   -0.3716 C   0  0  0  0  0  0  0  0  0  0  0  0
   -1.4631   -3.3406   -0.7601 Br  0  0  0  0  0  0  0  0  0  0  0  0
    0.8188   -1.5646   -0.4332 C   0  0  0  0  0  0  0  0  0  0  0  0
    1.9262   -3.0544   -0.9089 Br  0  0  0  0  0  0  0  0  0  0  0  0
    3.2739    1.2521    1.1011 H   0  0  0  0  0  0  0  0  0  0  0  0
    3.1577    1.7219   -0.6407 H   0  0  0  0  0  0  0  0  0  0  0  0
    4.5343    0.7860   -0.0468 H   0  0  0  0  0  0  0  0  0  0  0  0
    1.0769    1.7306    0.4385 H   0  0  0  0  0  0  0  0  0  0  0  0
   -1.3129    1.5287    0.5434 H   0  0  0  0  0  0  0  0  0  0  0  0
   -4.5923    0.0152    0.3539 H   0  0  0  0  0  0  0  0  0  0  0  0
   -3.4488    1.1639   -0.3506 H   0  0  0  0  0  0  0  0  0  0  0  0
   -3.3326    0.6941    1.3911 H   0  0  0  0  0  0  0  0  0  0  0  0
  1  2  1  0
  2  3  1  0
  3  4  2  0
  4  5  1  0
  5  6  2  0
  6  7  1  0
  7  8  1  0
  6  9  1  0
  9 10  1  0
  9 11  2  0
 11 12  1  0
 11  3  1  0
  1 13  1  0
  1 14  1  0
  1 15  1  0
  4 16  1  0
  5 17  1  0
  8 18  1  0
  8 19  1  0
  8 20  1  0
M  END
