
     RDKit          3D

 11 11  0  0  0  0  0  0  0  0999 V2000
   -2.6251    0.6372   -0.1006 F   0  0  0  0  0  0  0  0  0  0  0  0
   -1.3556    0.2166   -0.0564 C   0  0  0  0  0  0  0  0  0  0  0  0
   -1.0586   -1.1326   -0.0964 C   0  0  0  0  0  0  0  0  0  0  0  0
    0.2032   -1.6194   -0.0553 N   0  0  0  0  0  0  0  0  0  0  0  0
    1.2139   -0.7133    0.0297 C   0  0  0  0  0  0  0  0  0  0  0  0
    2.9632   -1.4643    0.0835 Br  0  0  0  0  0  0  0  0  0  0  0  0
    0.9961    0.6665    0.0746 C   0  0  0  0  0  0  0  0  0  0  0  0
    2.3803    1.9563    0.1929 Br  0  0  0  0  0  0  0  0  0  0  0  0
   -0.3192    1.1330    0.0302 C   0  0  0  0  0  0  0  0  0  0  0  0
   -1.8492   -1.8732   -0.1641 H   0  0  0  0  0  0  0  0  0  0  0  0
   -0.5489    2.1932    0.0617 H   0  0  0  0  0  0  0  0  0  0  0  0
  1  2  1  0
  2  3  2  0
  3  4  1  0
  4  5  2  0
  5  6  1  0
  5  7  1  0
  7  8  1  0
  7  9  2  0
  9  2  1  0
  3 10  1  0
  9 11  1  0
M  END
