
     RDKit          3D

 18 19  0  0  0  0  0  0  0  0999 V2000
    4.0173   -1.5719    0.2789 Br  0  0  0  0  0  0  0  0  0  0  0  0
    2.3850   -0.6028    0.2016 C   0  0  0  0  0  0  0  0  0  0  0  0
    1.2147   -1.3407   -0.0100 C   0  0  0  0  0  0  0  0  0  0  0  0
   -0.0350   -0.7046   -0.0807 C   0  0  0  0  0  0  0  0  0  0  0  0
   -1.2160   -1.4341   -0.2926 C   0  0  0  0  0  0  0  0  0  0  0  0
   -2.4510   -0.7876   -0.3606 C   0  0  0  0  0  0  0  0  0  0  0  0
   -2.5212    0.5948   -0.2178 C   0  0  0  0  0  0  0  0  0  0  0  0
   -1.3567    1.3343   -0.0066 C   0  0  0  0  0  0  0  0  0  0  0  0
   -0.1063    0.6992    0.0643 C   0  0  0  0  0  0  0  0  0  0  0  0
    1.0740    1.4294    0.2762 C   0  0  0  0  0  0  0  0  0  0  0  0
    2.3145    0.7850    0.3450 C   0  0  0  0  0  0  0  0  0  0  0  0
    3.8422    1.8767    0.6352 Br  0  0  0  0  0  0  0  0  0  0  0  0
    1.2736   -2.4217   -0.1212 H   0  0  0  0  0  0  0  0  0  0  0  0
   -1.1836   -2.5157   -0.4069 H   0  0  0  0  0  0  0  0  0  0  0  0
   -3.3577   -1.3644   -0.5251 H   0  0  0  0  0  0  0  0  0  0  0  0
   -3.4828    1.0991   -0.2706 H   0  0  0  0  0  0  0  0  0  0  0  0
   -1.4340    2.4142    0.1024 H   0  0  0  0  0  0  0  0  0  0  0  0
    1.0231    2.5108    0.3884 H   0  0  0  0  0  0  0  0  0  0  0  0
  1  2  1  0
  2  3  2  0
  3  4  1  0
  4  5  2  0
  5  6  1  0
  6  7  2  0
  7  8  1  0
  8  9  2  0
  9 10  1  0
 10 11  2  0
 11 12  1  0
 11  2  1  0
  9  4  1  0
  3 13  1  0
  5 14  1  0
  6 15  1  0
  7 16  1  0
  8 17  1  0
 10 18  1  0
M  END
