
     RDKit          3D

 18 18  0  0  0  0  0  0  0  0999 V2000
   -2.7078   -1.1494   -0.2548 C   0  0  0  0  0  0  0  0  0  0  0  0
   -2.2184    0.1857   -0.2811 O   0  0  0  0  0  0  0  0  0  0  0  0
   -0.8704    0.3903   -0.1307 C   0  0  0  0  0  0  0  0  0  0  0  0
    0.0569   -0.6425    0.0481 C   0  0  0  0  0  0  0  0  0  0  0  0
    1.4183   -0.3412    0.1940 C   0  0  0  0  0  0  0  0  0  0  0  0
    2.3859   -1.4309    0.3813 N   0  0  0  0  0  4  0  0  0  0  0  0
    1.9488   -2.5897    0.4026 O   0  0  0  0  0  0  0  0  0  0  0  0
    3.5793   -1.1254    0.5065 O   0  0  0  0  0  1  0  0  0  0  0  0
    1.8676    0.9821    0.1636 C   0  0  0  0  0  0  0  0  0  0  0  0
    0.9451    2.0168   -0.0148 C   0  0  0  0  0  0  0  0  0  0  0  0
    1.6503    3.7838   -0.0426 Br  0  0  0  0  0  0  0  0  0  0  0  0
   -0.4227    1.7297   -0.1623 C   0  0  0  0  0  0  0  0  0  0  0  0
   -1.7029    3.1290   -0.4074 Br  0  0  0  0  0  0  0  0  0  0  0  0
   -2.5088   -1.6229    0.7121 H   0  0  0  0  0  0  0  0  0  0  0  0
   -3.7930   -1.1099   -0.3890 H   0  0  0  0  0  0  0  0  0  0  0  0
   -2.2915   -1.7378   -1.0789 H   0  0  0  0  0  0  0  0  0  0  0  0
   -0.2625   -1.6804    0.0760 H   0  0  0  0  0  0  0  0  0  0  0  0
    2.9258    1.2127    0.2772 H   0  0  0  0  0  0  0  0  0  0  0  0
  1  2  1  0
  2  3  1  0
  3  4  2  0
  4  5  1  0
  5  6  1  0
  6  7  2  0
  6  8  1  0
  5  9  2  0
  9 10  1  0
 10 11  1  0
 10 12  2  0
 12 13  1  0
 12  3  1  0
  1 14  1  0
  1 15  1  0
  1 16  1  0
  4 17  1  0
  9 18  1  0
M  CHG  2   6   1   8  -1
M  END
