
     RDKit          3D

 15 15  0  0  0  0  0  0  0  0999 V2000
    2.7825    0.6030    1.0159 O   0  0  0  0  0  0  0  0  0  0  0  0
    2.1002    0.0574    0.1728 C   0  0  0  0  0  0  0  0  0  0  0  0
    2.6482   -0.6452   -0.8361 O   0  0  0  0  0  0  0  0  0  0  0  0
    0.6250    0.0400    0.0846 C   0  0  0  0  0  0  0  0  0  0  0  0
    0.0063   -1.2059   -0.1197 C   0  0  0  0  0  0  0  0  0  0  0  0
   -1.3811   -1.3030   -0.1740 C   0  0  0  0  0  0  0  0  0  0  0  0
   -2.1573   -0.1572   -0.0228 C   0  0  0  0  0  0  0  0  0  0  0  0
   -1.5503    1.0906    0.1764 C   0  0  0  0  0  0  0  0  0  0  0  0
   -2.7284    2.5760    0.3565 Br  0  0  0  0  0  0  0  0  0  0  0  0
   -0.1500    1.2030    0.2310 C   0  0  0  0  0  0  0  0  0  0  0  0
    0.6801    2.9101    0.4349 Br  0  0  0  0  0  0  0  0  0  0  0  0
    3.6139   -0.5498   -0.6931 H   0  0  0  0  0  0  0  0  0  0  0  0
    0.6086   -2.1060   -0.2306 H   0  0  0  0  0  0  0  0  0  0  0  0
   -1.8563   -2.2687   -0.3305 H   0  0  0  0  0  0  0  0  0  0  0  0
   -3.2414   -0.2443   -0.0653 H   0  0  0  0  0  0  0  0  0  0  0  0
  1  2  2  0
  2  3  1  0
  2  4  1  0
  4  5  2  0
  5  6  1  0
  6  7  2  0
  7  8  1  0
  8  9  1  0
  8 10  2  0
 10 11  1  0
 10  4  1  0
  3 12  1  0
  5 13  1  0
  6 14  1  0
  7 15  1  0
M  END
