
     RDKit          3D

 18 19  0  0  0  0  0  0  0  0999 V2000
    3.8887    1.8634   -0.3061 Br  0  0  0  0  0  0  0  0  0  0  0  0
    2.3384    0.7792   -0.1306 C   0  0  0  0  0  0  0  0  0  0  0  0
    1.0978    1.4200   -0.2265 C   0  0  0  0  0  0  0  0  0  0  0  0
   -0.0986    0.6948   -0.1085 C   0  0  0  0  0  0  0  0  0  0  0  0
   -1.3492    1.3265   -0.2029 C   0  0  0  0  0  0  0  0  0  0  0  0
   -2.5299    0.5921   -0.0835 C   0  0  0  0  0  0  0  0  0  0  0  0
   -2.4758   -0.7817    0.1315 C   0  0  0  0  0  0  0  0  0  0  0  0
   -1.2408   -1.4246    0.2277 C   0  0  0  0  0  0  0  0  0  0  0  0
   -0.0437   -0.7002    0.1099 C   0  0  0  0  0  0  0  0  0  0  0  0
    1.2062   -1.3328    0.2044 C   0  0  0  0  0  0  0  0  0  0  0  0
    2.3927   -0.5999    0.0852 C   0  0  0  0  0  0  0  0  0  0  0  0
    4.0236   -1.5637    0.2302 Br  0  0  0  0  0  0  0  0  0  0  0  0
    1.0595    2.4946   -0.3946 H   0  0  0  0  0  0  0  0  0  0  0  0
   -1.4141    2.3996   -0.3707 H   0  0  0  0  0  0  0  0  0  0  0  0
   -3.4914    1.0936   -0.1586 H   0  0  0  0  0  0  0  0  0  0  0  0
   -3.3950   -1.3545    0.2246 H   0  0  0  0  0  0  0  0  0  0  0  0
   -1.2211   -2.4994    0.3960 H   0  0  0  0  0  0  0  0  0  0  0  0
    1.2526   -2.4070    0.3725 H   0  0  0  0  0  0  0  0  0  0  0  0
  1  2  1  0
  2  3  2  0
  3  4  1  0
  4  5  2  0
  5  6  1  0
  6  7  2  0
  7  8  1  0
  8  9  2  0
  9 10  1  0
 10 11  2  0
 11 12  1  0
 11  2  1  0
  9  4  1  0
  3 13  1  0
  5 14  1  0
  6 15  1  0
  7 16  1  0
  8 17  1  0
 10 18  1  0
M  END
