
     RDKit          3D

 19 20  0  0  0  0  0  0  0  0999 V2000
    4.5907    1.4406   -0.8279 Br  0  0  0  0  0  0  0  0  0  0  0  0
    2.7517    0.9925   -0.5337 C   0  0  0  0  0  0  0  0  0  0  0  0
    1.5157    2.1462   -0.7090 S   0  0  0  0  0  0  0  0  0  0  0  0
    0.3239    1.0037   -0.2897 C   0  0  0  0  0  0  0  0  0  0  0  0
    0.8490   -0.2524   -0.0308 C   0  0  0  0  0  0  0  0  0  0  0  0
    2.2721   -0.2408   -0.1676 C   0  0  0  0  0  0  0  0  0  0  0  0
    3.3171   -1.7896    0.1463 Br  0  0  0  0  0  0  0  0  0  0  0  0
   -0.0306   -1.4032    0.3692 C   0  0  0  0  0  0  0  0  0  0  0  0
   -1.5131   -1.1279    0.0703 C   0  0  0  0  0  0  0  0  0  0  0  0
   -1.9276    0.2854    0.5003 C   0  0  0  0  0  0  0  0  0  0  0  0
   -1.1302    1.3612   -0.2513 C   0  0  0  0  0  0  0  0  0  0  0  0
    0.0942   -1.5781    1.4451 H   0  0  0  0  0  0  0  0  0  0  0  0
    0.2704   -2.3189   -0.1516 H   0  0  0  0  0  0  0  0  0  0  0  0
   -1.6977   -1.2436   -1.0056 H   0  0  0  0  0  0  0  0  0  0  0  0
   -2.1326   -1.8724    0.5828 H   0  0  0  0  0  0  0  0  0  0  0  0
   -2.9986    0.4330    0.3213 H   0  0  0  0  0  0  0  0  0  0  0  0
   -1.7652    0.3938    1.5804 H   0  0  0  0  0  0  0  0  0  0  0  0
   -1.2855    2.3326    0.2315 H   0  0  0  0  0  0  0  0  0  0  0  0
   -1.5038    1.4378   -1.2799 H   0  0  0  0  0  0  0  0  0  0  0  0
  1  2  1  0
  2  3  1  0
  3  4  1  0
  4  5  2  0
  5  6  1  0
  6  7  1  0
  5  8  1  0
  8  9  1  0
  9 10  1  0
 10 11  1  0
  6  2  2  0
 11  4  1  0
  8 12  1  0
  8 13  1  0
  9 14  1  0
  9 15  1  0
 10 16  1  0
 10 17  1  0
 11 18  1  0
 11 19  1  0
M  END
