
     RDKit          3D

 21 21  0  0  0  0  0  0  0  0999 V2000
   -2.7303   -1.0457    0.7645 C   0  0  0  0  0  0  0  0  0  0  0  0
   -2.3338   -0.2745   -0.4821 C   0  0  0  0  0  0  0  0  0  0  0  0
   -1.4417    0.7926   -0.1554 O   0  0  0  0  0  0  0  0  0  0  0  0
   -0.0931    0.5543   -0.1414 C   0  0  0  0  0  0  0  0  0  0  0  0
    0.5291   -0.6787   -0.3013 C   0  0  0  0  0  0  0  0  0  0  0  0
    1.9321   -0.7786   -0.2593 C   0  0  0  0  0  0  0  0  0  0  0  0
    2.5057   -2.0838   -0.4323 C   0  0  0  0  0  0  0  0  0  0  0  0
    2.9274   -3.1552   -0.5767 N   0  0  0  0  0  0  0  0  0  0  0  0
    2.7232    0.3671   -0.0527 C   0  0  0  0  0  0  0  0  0  0  0  0
    4.6280    0.1967   -0.0027 Br  0  0  0  0  0  0  0  0  0  0  0  0
    2.0993    1.6142    0.1148 C   0  0  0  0  0  0  0  0  0  0  0  0
    3.0911    3.2189    0.4036 Br  0  0  0  0  0  0  0  0  0  0  0  0
    0.7001    1.6906    0.0700 C   0  0  0  0  0  0  0  0  0  0  0  0
    0.0665    2.8992    0.2338 O   0  0  0  0  0  0  0  0  0  0  0  0
   -3.1580   -0.3700    1.5126 H   0  0  0  0  0  0  0  0  0  0  0  0
   -1.8652   -1.5265    1.2306 H   0  0  0  0  0  0  0  0  0  0  0  0
   -3.4686   -1.8159    0.5238 H   0  0  0  0  0  0  0  0  0  0  0  0
   -1.9394   -0.9244   -1.2707 H   0  0  0  0  0  0  0  0  0  0  0  0
   -3.2329    0.1927   -0.9000 H   0  0  0  0  0  0  0  0  0  0  0  0
   -0.0484   -1.5871   -0.4524 H   0  0  0  0  0  0  0  0  0  0  0  0
   -0.8911    2.7139    0.1734 H   0  0  0  0  0  0  0  0  0  0  0  0
  1  2  1  0
  2  3  1  0
  3  4  1  0
  4  5  2  0
  5  6  1  0
  6  7  1  0
  7  8  3  0
  6  9  2  0
  9 10  1  0
  9 11  1  0
 11 12  1  0
 11 13  2  0
 13 14  1  0
 13  4  1  0
  1 15  1  0
  1 16  1  0
  1 17  1  0
  2 18  1  0
  2 19  1  0
  5 20  1  0
 14 21  1  0
M  END
