
     RDKit          3D

 12 12  0  0  0  0  0  0  0  0999 V2000
   -1.5210   -2.3647    0.0523 F   0  0  0  0  0  0  0  0  0  0  0  0
   -0.8022   -1.2356    0.0274 C   0  0  0  0  0  0  0  0  0  0  0  0
   -1.4543   -0.0121    0.0231 C   0  0  0  0  0  0  0  0  0  0  0  0
   -0.7061    1.1675   -0.0028 C   0  0  0  0  0  0  0  0  0  0  0  0
   -1.5984    2.6509   -0.0064 Cl  0  0  0  0  0  0  0  0  0  0  0  0
    0.7000    1.1206   -0.0244 C   0  0  0  0  0  0  0  0  0  0  0  0
    1.7158    2.7372   -0.0598 Br  0  0  0  0  0  0  0  0  0  0  0  0
    1.3379   -0.1326   -0.0196 C   0  0  0  0  0  0  0  0  0  0  0  0
    3.2287   -0.3446   -0.0469 Br  0  0  0  0  0  0  0  0  0  0  0  0
    0.5830   -1.3094    0.0064 C   0  0  0  0  0  0  0  0  0  0  0  0
   -2.5401    0.0100    0.0400 H   0  0  0  0  0  0  0  0  0  0  0  0
    1.0568   -2.2872    0.0106 H   0  0  0  0  0  0  0  0  0  0  0  0
  1  2  1  0
  2  3  2  0
  3  4  1  0
  4  5  1  0
  4  6  2  0
  6  7  1  0
  6  8  1  0
  8  9  1  0
  8 10  2  0
 10  2  1  0
  3 11  1  0
 10 12  1  0
M  END
