
     RDKit          3D

 14 14  0  0  0  0  0  0  0  0999 V2000
   -3.1479   -0.5337    0.1183 O   0  0  0  0  0  0  0  0  0  0  0  0
   -2.3412    0.3872    0.0342 C   0  0  0  0  0  0  0  0  0  0  0  0
   -0.8791    0.1403    0.0132 C   0  0  0  0  0  0  0  0  0  0  0  0
   -0.4593   -1.1986    0.0941 C   0  0  0  0  0  0  0  0  0  0  0  0
    0.8953   -1.5193    0.0809 C   0  0  0  0  0  0  0  0  0  0  0  0
    1.8421   -0.5042   -0.0133 C   0  0  0  0  0  0  0  0  0  0  0  0
    1.4382    0.8348   -0.0946 C   0  0  0  0  0  0  0  0  0  0  0  0
    2.8351    2.1236   -0.2191 Br  0  0  0  0  0  0  0  0  0  0  0  0
    0.0719    1.1721   -0.0822 C   0  0  0  0  0  0  0  0  0  0  0  0
   -0.4697    3.0002   -0.1934 Br  0  0  0  0  0  0  0  0  0  0  0  0
   -2.7009    1.4241   -0.0275 H   0  0  0  0  0  0  0  0  0  0  0  0
   -1.1929   -2.0013    0.1681 H   0  0  0  0  0  0  0  0  0  0  0  0
    1.2102   -2.5586    0.1440 H   0  0  0  0  0  0  0  0  0  0  0  0
    2.8984   -0.7666   -0.0227 H   0  0  0  0  0  0  0  0  0  0  0  0
  1  2  2  0
  2  3  1  0
  3  4  2  0
  4  5  1  0
  5  6  2  0
  6  7  1  0
  7  8  1  0
  7  9  2  0
  9 10  1  0
  9  3  1  0
  2 11  1  0
  4 12  1  0
  5 13  1  0
  6 14  1  0
M  END
