
     RDKit          3D

 11 11  0  0  0  0  0  0  0  0999 V2000
   -2.6725    0.3910   -0.1102 F   0  0  0  0  0  0  0  0  0  0  0  0
   -1.3697    0.0900   -0.0601 C   0  0  0  0  0  0  0  0  0  0  0  0
   -0.9494   -1.2265   -0.0837 C   0  0  0  0  0  0  0  0  0  0  0  0
    0.3519   -1.5943   -0.0358 N   0  0  0  0  0  0  0  0  0  0  0  0
    1.2744   -0.5979    0.0391 C   0  0  0  0  0  0  0  0  0  0  0  0
    3.0855   -1.1836    0.1033 Br  0  0  0  0  0  0  0  0  0  0  0  0
    0.9302    0.7564    0.0675 C   0  0  0  0  0  0  0  0  0  0  0  0
    2.1893    2.1697    0.1715 Br  0  0  0  0  0  0  0  0  0  0  0  0
   -0.4224    1.0990    0.0165 C   0  0  0  0  0  0  0  0  0  0  0  0
   -1.6682   -2.0376   -0.1433 H   0  0  0  0  0  0  0  0  0  0  0  0
   -0.7490    2.1338    0.0353 H   0  0  0  0  0  0  0  0  0  0  0  0
  1  2  1  0
  2  3  2  0
  3  4  1  0
  4  5  2  0
  5  6  1  0
  5  7  1  0
  7  8  1  0
  7  9  2  0
  9  2  1  0
  3 10  1  0
  9 11  1  0
M  END
