
     RDKit          3D

 19 20  0  0  0  0  0  0  0  0999 V2000
    4.2651    1.4813   -1.1177 Br  0  0  0  0  0  0  0  0  0  0  0  0
    2.5425    0.8745   -0.6527 C   0  0  0  0  0  0  0  0  0  0  0  0
    1.5495    1.7410   -0.2625 N   0  0  0  0  0  0  0  0  0  0  0  0
    0.4975    0.9857   -0.0252 C   0  0  0  0  0  0  0  0  0  0  0  0
    0.7889   -0.3405   -0.2403 N   0  0  0  0  0  0  0  0  0  0  0  0
    2.0884   -0.4241   -0.6507 C   0  0  0  0  0  0  0  0  0  0  0  0
    3.0438   -1.9942   -1.1267 Br  0  0  0  0  0  0  0  0  0  0  0  0
   -0.1712   -1.4183   -0.1139 C   0  0  0  0  0  0  0  0  0  0  0  0
   -1.4234   -1.0042    0.6607 C   0  0  0  0  0  0  0  0  0  0  0  0
   -1.9147    0.3720    0.2098 C   0  0  0  0  0  0  0  0  0  0  0  0
   -0.8419    1.4357    0.4503 C   0  0  0  0  0  0  0  0  0  0  0  0
   -0.4366   -1.7198   -1.1336 H   0  0  0  0  0  0  0  0  0  0  0  0
    0.3176   -2.2592    0.3882 H   0  0  0  0  0  0  0  0  0  0  0  0
   -2.2097   -1.7537    0.5192 H   0  0  0  0  0  0  0  0  0  0  0  0
   -1.1982   -0.9728    1.7344 H   0  0  0  0  0  0  0  0  0  0  0  0
   -2.1686    0.3348   -0.8572 H   0  0  0  0  0  0  0  0  0  0  0  0
   -2.8294    0.6418    0.7493 H   0  0  0  0  0  0  0  0  0  0  0  0
   -0.7746    1.6540    1.5228 H   0  0  0  0  0  0  0  0  0  0  0  0
   -1.1249    2.3661   -0.0541 H   0  0  0  0  0  0  0  0  0  0  0  0
  1  2  1  0
  2  3  1  0
  3  4  2  0
  4  5  1  0
  5  6  1  0
  6  7  1  0
  5  8  1  0
  8  9  1  0
  9 10  1  0
 10 11  1  0
  6  2  2  0
 11  4  1  0
  8 12  1  0
  8 13  1  0
  9 14  1  0
  9 15  1  0
 10 16  1  0
 10 17  1  0
 11 18  1  0
 11 19  1  0
M  END
