
     RDKit          3D

 18 18  0  0  0  0  0  0  0  0999 V2000
   -2.6621   -0.7536    0.5274 C   0  0  0  0  0  0  0  0  0  0  0  0
   -1.8888    0.4403    0.4551 O   0  0  0  0  0  0  0  0  0  0  0  0
   -0.5757    0.3121    0.0825 C   0  0  0  0  0  0  0  0  0  0  0  0
    0.0730   -0.8776   -0.2320 C   0  0  0  0  0  0  0  0  0  0  0  0
    1.4306   -0.8697   -0.6010 C   0  0  0  0  0  0  0  0  0  0  0  0
    2.0368   -2.1338   -0.9126 C   0  0  0  0  0  0  0  0  0  0  0  0
    2.4869   -3.1752   -1.1558 N   0  0  0  0  0  0  0  0  0  0  0  0
    2.1476    0.3406   -0.6561 C   0  0  0  0  0  0  0  0  0  0  0  0
    3.9927    0.3163   -1.1616 Br  0  0  0  0  0  0  0  0  0  0  0  0
    1.4956    1.5441   -0.3391 C   0  0  0  0  0  0  0  0  0  0  0  0
    2.3891    3.2298   -0.3872 Br  0  0  0  0  0  0  0  0  0  0  0  0
    0.1425    1.5138    0.0260 C   0  0  0  0  0  0  0  0  0  0  0  0
   -0.5178    2.6770    0.3407 O   0  0  0  0  0  0  0  0  0  0  0  0
   -2.7311   -1.2375   -0.4523 H   0  0  0  0  0  0  0  0  0  0  0  0
   -3.6749   -0.4769    0.8354 H   0  0  0  0  0  0  0  0  0  0  0  0
   -2.2589   -1.4383    1.2808 H   0  0  0  0  0  0  0  0  0  0  0  0
   -0.4511   -1.8298   -0.1996 H   0  0  0  0  0  0  0  0  0  0  0  0
   -1.4343    2.4185    0.5604 H   0  0  0  0  0  0  0  0  0  0  0  0
  1  2  1  0
  2  3  1  0
  3  4  2  0
  4  5  1  0
  5  6  1  0
  6  7  3  0
  5  8  2  0
  8  9  1  0
  8 10  1  0
 10 11  1  0
 10 12  2  0
 12 13  1  0
 12  3  1  0
  1 14  1  0
  1 15  1  0
  1 16  1  0
  4 17  1  0
 13 18  1  0
M  END
