
     RDKit          3D

 31 31  0  0  0  0  0  0  0  0999 V2000
    3.8606   -0.8265   -1.1068 C   0  0  0  0  0  0  0  0  0  0  0  0
    2.8839   -1.5892   -0.2234 C   0  0  0  0  0  0  0  0  0  0  0  0
    1.8343   -0.6789    0.4096 C   0  0  0  0  0  0  0  0  0  0  0  0
    1.0410   -0.0928   -0.6322 O   0  0  0  0  0  0  0  0  0  0  0  0
    0.1136    0.7773   -0.1129 C   0  0  0  0  0  0  0  0  0  0  0  0
   -1.0644    0.2842    0.4554 C   0  0  0  0  0  0  0  0  0  0  0  0
   -1.3224   -1.0564    0.5662 O   0  0  0  0  0  0  0  0  0  0  0  0
   -1.7168   -1.6093   -0.6963 C   0  0  0  0  0  0  0  0  0  0  0  0
   -2.1667   -3.0390   -0.4578 C   0  0  0  0  0  0  0  0  0  0  0  0
   -1.9994    1.1576    1.0000 C   0  0  0  0  0  0  0  0  0  0  0  0
   -1.7976    2.5437    0.9295 C   0  0  0  0  0  0  0  0  0  0  0  0
   -2.8516    3.4024    1.5228 C   0  0  0  0  0  0  0  0  0  0  0  0
   -3.8668    2.9230    2.0175 O   0  0  0  0  0  0  0  0  0  0  0  0
   -0.6412    3.0589    0.3127 C   0  0  0  0  0  0  0  0  0  0  0  0
   -0.3714    4.9490    0.1900 Br  0  0  0  0  0  0  0  0  0  0  0  0
    0.3160    2.1651   -0.2147 C   0  0  0  0  0  0  0  0  0  0  0  0
    1.9110    2.7840   -1.0730 Br  0  0  0  0  0  0  0  0  0  0  0  0
    3.3498   -0.3583   -1.9539 H   0  0  0  0  0  0  0  0  0  0  0  0
    4.3745   -0.0446   -0.5386 H   0  0  0  0  0  0  0  0  0  0  0  0
    4.6177   -1.5080   -1.5072 H   0  0  0  0  0  0  0  0  0  0  0  0
    2.3864   -2.3520   -0.8337 H   0  0  0  0  0  0  0  0  0  0  0  0
    3.4400   -2.1050    0.5673 H   0  0  0  0  0  0  0  0  0  0  0  0
    2.3264    0.1041    1.0005 H   0  0  0  0  0  0  0  0  0  0  0  0
    1.2079   -1.2816    1.0771 H   0  0  0  0  0  0  0  0  0  0  0  0
   -0.8767   -1.6106   -1.3990 H   0  0  0  0  0  0  0  0  0  0  0  0
   -2.5466   -1.0336   -1.1249 H   0  0  0  0  0  0  0  0  0  0  0  0
   -3.0010   -3.0673    0.2510 H   0  0  0  0  0  0  0  0  0  0  0  0
   -2.4812   -3.5101   -1.3932 H   0  0  0  0  0  0  0  0  0  0  0  0
   -1.3553   -3.6296   -0.0195 H   0  0  0  0  0  0  0  0  0  0  0  0
   -2.8927    0.7512    1.4724 H   0  0  0  0  0  0  0  0  0  0  0  0
   -2.7113    4.4925    1.5150 H   0  0  0  0  0  0  0  0  0  0  0  0
  1  2  1  0
  2  3  1  0
  3  4  1  0
  4  5  1  0
  5  6  2  0
  6  7  1  0
  7  8  1  0
  8  9  1  0
  6 10  1  0
 10 11  2  0
 11 12  1  0
 12 13  2  0
 11 14  1  0
 14 15  1  0
 14 16  2  0
 16 17  1  0
 16  5  1  0
  1 18  1  0
  1 19  1  0
  1 20  1  0
  2 21  1  0
  2 22  1  0
  3 23  1  0
  3 24  1  0
  8 25  1  0
  8 26  1  0
  9 27  1  0
  9 28  1  0
  9 29  1  0
 10 30  1  0
 12 31  1  0
M  END
