
     RDKit          3D

 15 15  0  0  0  0  0  0  0  0999 V2000
   -2.2114    0.3409   -0.2153 C   0  0  0  0  0  0  0  0  0  0  0  0
   -0.7328    0.0979   -0.0712 C   0  0  0  0  0  0  0  0  0  0  0  0
   -0.2751   -1.2288   -0.0163 C   0  0  0  0  0  0  0  0  0  0  0  0
    1.0812   -1.5000    0.1162 C   0  0  0  0  0  0  0  0  0  0  0  0
    1.4956   -2.7723    0.1666 F   0  0  0  0  0  0  0  0  0  0  0  0
    2.0115   -0.4757    0.1972 C   0  0  0  0  0  0  0  0  0  0  0  0
    1.5793    0.8516    0.1447 C   0  0  0  0  0  0  0  0  0  0  0  0
    2.9312    2.1856    0.2636 Br  0  0  0  0  0  0  0  0  0  0  0  0
    0.2091    1.1477    0.0106 C   0  0  0  0  0  0  0  0  0  0  0  0
   -0.3983    2.9578   -0.0627 Br  0  0  0  0  0  0  0  0  0  0  0  0
   -2.5937    0.9014    0.6437 H   0  0  0  0  0  0  0  0  0  0  0  0
   -2.4223    0.8867   -1.1404 H   0  0  0  0  0  0  0  0  0  0  0  0
   -2.7696   -0.6007   -0.2611 H   0  0  0  0  0  0  0  0  0  0  0  0
   -0.9673   -2.0650   -0.0759 H   0  0  0  0  0  0  0  0  0  0  0  0
    3.0626   -0.7270    0.3002 H   0  0  0  0  0  0  0  0  0  0  0  0
  1  2  1  0
  2  3  2  0
  3  4  1  0
  4  5  1  0
  4  6  2  0
  6  7  1  0
  7  8  1  0
  7  9  2  0
  9 10  1  0
  9  2  1  0
  1 11  1  0
  1 12  1  0
  1 13  1  0
  3 14  1  0
  6 15  1  0
M  END
