
     RDKit          3D

 25 25  0  0  0  0  0  0  0  0999 V2000
   -3.8531    0.6969   -0.3382 C   0  0  0  0  0  0  0  0  0  0  0  0
   -2.4950    0.0612   -0.1049 C   0  0  0  0  0  0  0  0  0  0  0  0
   -1.4972    0.9553   -0.6145 O   0  0  0  0  0  0  0  0  0  0  0  0
   -0.2641    0.3425   -0.6548 C   0  0  0  0  0  0  0  0  0  0  0  0
    0.5141    0.2839    0.5126 C   0  0  0  0  0  0  0  0  0  0  0  0
   -0.0408    0.8200    1.6438 O   0  0  0  0  0  0  0  0  0  0  0  0
    0.7718    0.9150    2.8062 C   0  0  0  0  0  0  0  0  0  0  0  0
    1.7732   -0.3092    0.4515 C   0  0  0  0  0  0  0  0  0  0  0  0
    2.2653   -0.8227   -0.7624 C   0  0  0  0  0  0  0  0  0  0  0  0
    3.6049   -1.4548   -0.6720 C   0  0  0  0  0  0  0  0  0  0  0  0
    3.9780   -2.3761   -1.3822 O   0  0  0  0  0  0  0  0  0  0  0  0
    1.5096   -0.7230   -1.9445 C   0  0  0  0  0  0  0  0  0  0  0  0
    2.2252   -1.3042   -3.6189 Br  0  0  0  0  0  0  0  0  0  0  0  0
    0.2340   -0.1301   -1.8846 C   0  0  0  0  0  0  0  0  0  0  0  0
   -0.8655    0.0687   -3.4403 Br  0  0  0  0  0  0  0  0  0  0  0  0
   -4.6542    0.0542    0.0374 H   0  0  0  0  0  0  0  0  0  0  0  0
   -4.0160    0.8772   -1.4060 H   0  0  0  0  0  0  0  0  0  0  0  0
   -3.9150    1.6687    0.1627 H   0  0  0  0  0  0  0  0  0  0  0  0
   -2.4540   -0.9062   -0.6207 H   0  0  0  0  0  0  0  0  0  0  0  0
   -2.3519   -0.0998    0.9691 H   0  0  0  0  0  0  0  0  0  0  0  0
    0.1938    1.4339    3.5770 H   0  0  0  0  0  0  0  0  0  0  0  0
    1.0224   -0.0790    3.1904 H   0  0  0  0  0  0  0  0  0  0  0  0
    1.6744    1.5040    2.6126 H   0  0  0  0  0  0  0  0  0  0  0  0
    2.3845   -0.3990    1.3448 H   0  0  0  0  0  0  0  0  0  0  0  0
    4.2556   -1.0774    0.1359 H   0  0  0  0  0  0  0  0  0  0  0  0
  1  2  1  0
  2  3  1  0
  3  4  1  0
  4  5  2  0
  5  6  1  0
  6  7  1  0
  5  8  1  0
  8  9  2  0
  9 10  1  0
 10 11  2  0
  9 12  1  0
 12 13  1  0
 12 14  2  0
 14 15  1  0
 14  4  1  0
  1 16  1  0
  1 17  1  0
  1 18  1  0
  2 19  1  0
  2 20  1  0
  7 21  1  0
  7 22  1  0
  7 23  1  0
  8 24  1  0
 10 25  1  0
M  END
