
     RDKit          3D

 11 11  0  0  0  0  0  0  0  0999 V2000
   -2.3892    1.2465    0.2127 F   0  0  0  0  0  0  0  0  0  0  0  0
   -1.2617    0.5358    0.0946 C   0  0  0  0  0  0  0  0  0  0  0  0
   -1.3080   -0.8315   -0.1019 C   0  0  0  0  0  0  0  0  0  0  0  0
   -0.2043   -1.6040   -0.2285 N   0  0  0  0  0  0  0  0  0  0  0  0
    1.0010   -0.9784   -0.1549 C   0  0  0  0  0  0  0  0  0  0  0  0
    2.5122   -2.1224   -0.3406 Br  0  0  0  0  0  0  0  0  0  0  0  0
    1.1318    0.3991    0.0420 C   0  0  0  0  0  0  0  0  0  0  0  0
    2.7947    1.3028    0.1495 Br  0  0  0  0  0  0  0  0  0  0  0  0
   -0.0288    1.1650    0.1683 C   0  0  0  0  0  0  0  0  0  0  0  0
   -2.2588   -1.3514   -0.1638 H   0  0  0  0  0  0  0  0  0  0  0  0
    0.0112    2.2386    0.3226 H   0  0  0  0  0  0  0  0  0  0  0  0
  1  2  1  0
  2  3  2  0
  3  4  1  0
  4  5  2  0
  5  6  1  0
  5  7  1  0
  7  8  1  0
  7  9  2  0
  9  2  1  0
  3 10  1  0
  9 11  1  0
M  END
