
     RDKit          3D

 11 11  0  0  0  0  0  0  0  0999 V2000
    2.6783    1.4674    0.3773 Br  0  0  0  0  0  0  0  0  0  0  0  0
    1.0829    0.4719    0.1419 C   0  0  0  0  0  0  0  0  0  0  0  0
   -0.1210    1.1775    0.0916 C   0  0  0  0  0  0  0  0  0  0  0  0
   -1.3175    0.4872   -0.0800 C   0  0  0  0  0  0  0  0  0  0  0  0
   -1.2677   -0.8906   -0.1957 C   0  0  0  0  0  0  0  0  0  0  0  0
   -0.1231   -1.6040   -0.1516 N   0  0  0  0  0  0  0  0  0  0  0  0
    1.0361   -0.9157    0.0164 C   0  0  0  0  0  0  0  0  0  0  0  0
    2.6079   -1.9907    0.0686 Br  0  0  0  0  0  0  0  0  0  0  0  0
   -0.1366    2.2604    0.1848 H   0  0  0  0  0  0  0  0  0  0  0  0
   -2.2657    1.0125   -0.1223 H   0  0  0  0  0  0  0  0  0  0  0  0
   -2.1736   -1.4758   -0.3311 H   0  0  0  0  0  0  0  0  0  0  0  0
  1  2  1  0
  2  3  2  0
  3  4  1  0
  4  5  2  0
  5  6  1  0
  6  7  2  0
  7  8  1  0
  7  2  1  0
  3  9  1  0
  4 10  1  0
  5 11  1  0
M  END
