
     RDKit          3D

 19 20  0  0  0  0  0  0  0  0999 V2000
    4.6134    0.8854   -1.3296 Br  0  0  0  0  0  0  0  0  0  0  0  0
    2.7842    0.6634   -0.8064 C   0  0  0  0  0  0  0  0  0  0  0  0
    1.7487    1.9960   -0.6034 S   0  0  0  0  0  0  0  0  0  0  0  0
    0.4458    0.9813   -0.1861 C   0  0  0  0  0  0  0  0  0  0  0  0
    0.7881   -0.3616   -0.1834 C   0  0  0  0  0  0  0  0  0  0  0  0
    2.1571   -0.5326   -0.5584 C   0  0  0  0  0  0  0  0  0  0  0  0
    2.9491   -2.2488   -0.6878 Br  0  0  0  0  0  0  0  0  0  0  0  0
   -0.2189   -1.4272    0.1458 C   0  0  0  0  0  0  0  0  0  0  0  0
   -1.4681   -0.8495    0.8304 C   0  0  0  0  0  0  0  0  0  0  0  0
   -1.9621    0.4244    0.1323 C   0  0  0  0  0  0  0  0  0  0  0  0
   -0.9013    1.5341    0.1652 C   0  0  0  0  0  0  0  0  0  0  0  0
    0.2225   -2.1872    0.7999 H   0  0  0  0  0  0  0  0  0  0  0  0
   -0.5156   -1.9245   -0.7861 H   0  0  0  0  0  0  0  0  0  0  0  0
   -1.2375   -0.6172    1.8782 H   0  0  0  0  0  0  0  0  0  0  0  0
   -2.2619   -1.6048    0.8377 H   0  0  0  0  0  0  0  0  0  0  0  0
   -2.2152    0.1874   -0.9092 H   0  0  0  0  0  0  0  0  0  0  0  0
   -2.8804    0.7826    0.6112 H   0  0  0  0  0  0  0  0  0  0  0  0
   -0.8563    1.9636    1.1737 H   0  0  0  0  0  0  0  0  0  0  0  0
   -1.1915    2.3352   -0.5241 H   0  0  0  0  0  0  0  0  0  0  0  0
  1  2  1  0
  2  3  1  0
  3  4  1  0
  4  5  2  0
  5  6  1  0
  6  7  1  0
  5  8  1  0
  8  9  1  0
  9 10  1  0
 10 11  1  0
  6  2  2  0
 11  4  1  0
  8 12  1  0
  8 13  1  0
  9 14  1  0
  9 15  1  0
 10 16  1  0
 10 17  1  0
 11 18  1  0
 11 19  1  0
M  END
