
     RDKit          3D

 13 13  0  0  0  0  0  0  0  0999 V2000
    2.3149    0.9405    0.2110 O   0  0  0  0  0  0  0  0  0  0  0  0
    1.0536    0.4196    0.0947 C   0  0  0  0  0  0  0  0  0  0  0  0
    0.9031   -0.9521   -0.1190 C   0  0  0  0  0  0  0  0  0  0  0  0
   -0.3733   -1.4972   -0.2394 C   0  0  0  0  0  0  0  0  0  0  0  0
   -1.4946   -0.6727   -0.1462 C   0  0  0  0  0  0  0  0  0  0  0  0
   -1.3459    0.7036    0.0682 C   0  0  0  0  0  0  0  0  0  0  0  0
   -2.9447    1.7275    0.1780 Br  0  0  0  0  0  0  0  0  0  0  0  0
   -0.0656    1.2606    0.1905 C   0  0  0  0  0  0  0  0  0  0  0  0
    0.1979    3.1256    0.4829 Br  0  0  0  0  0  0  0  0  0  0  0  0
    2.9708    0.2304    0.1217 H   0  0  0  0  0  0  0  0  0  0  0  0
    1.7659   -1.6079   -0.1940 H   0  0  0  0  0  0  0  0  0  0  0  0
   -0.4973   -2.5648   -0.4060 H   0  0  0  0  0  0  0  0  0  0  0  0
   -2.4848   -1.1131   -0.2423 H   0  0  0  0  0  0  0  0  0  0  0  0
  1  2  1  0
  2  3  2  0
  3  4  1  0
  4  5  2  0
  5  6  1  0
  6  7  1  0
  6  8  2  0
  8  9  1  0
  8  2  1  0
  1 10  1  0
  3 11  1  0
  4 12  1  0
  5 13  1  0
M  END
