
     RDKit          3D

 14 14  0  0  0  0  0  0  0  0999 V2000
   -2.2526    1.6627   -0.1894 O   0  0  0  0  0  0  0  0  0  0  0  0
   -1.7960    0.5514   -0.0178 C   0  0  0  0  0  0  0  0  0  0  0  0
   -2.5874   -0.5140    0.2042 O   0  0  0  0  0  0  0  0  0  0  0  0
   -0.3732    0.1566   -0.0243 C   0  0  0  0  0  0  0  0  0  0  0  0
   -0.0293   -0.9945   -0.7437 C   0  0  0  0  0  0  0  0  0  0  0  0
    1.2979   -1.3600   -0.7947 C   0  0  0  0  0  0  0  0  0  0  0  0
    2.2763   -0.6630   -0.1897 N   0  0  0  0  0  0  0  0  0  0  0  0
    1.9267    0.4497    0.5089 C   0  0  0  0  0  0  0  0  0  0  0  0
    3.4015    1.3419    1.3301 Br  0  0  0  0  0  0  0  0  0  0  0  0
    0.6136    0.9067    0.6270 C   0  0  0  0  0  0  0  0  0  0  0  0
    0.1753    2.4341    1.6756 Br  0  0  0  0  0  0  0  0  0  0  0  0
   -3.4950   -0.1405    0.2107 H   0  0  0  0  0  0  0  0  0  0  0  0
   -0.7791   -1.5881   -1.2576 H   0  0  0  0  0  0  0  0  0  0  0  0
    1.6212   -2.2431   -1.3394 H   0  0  0  0  0  0  0  0  0  0  0  0
  1  2  2  0
  2  3  1  0
  2  4  1  0
  4  5  2  0
  5  6  1  0
  6  7  2  0
  7  8  1  0
  8  9  1  0
  8 10  2  0
 10 11  1  0
 10  4  1  0
  3 12  1  0
  5 13  1  0
  6 14  1  0
M  END
