
     RDKit          3D

 15 15  0  0  0  0  0  0  0  0999 V2000
   -2.3994   -2.0001    0.5648 F   0  0  0  0  0  0  0  0  0  0  0  0
   -1.5690   -0.9926    0.2709 C   0  0  0  0  0  0  0  0  0  0  0  0
   -2.0888    0.2291   -0.1232 C   0  0  0  0  0  0  0  0  0  0  0  0
   -1.2207    1.2797   -0.4296 C   0  0  0  0  0  0  0  0  0  0  0  0
   -2.0367    2.9154   -0.9604 Br  0  0  0  0  0  0  0  0  0  0  0  0
    0.1748    1.1023   -0.3397 C   0  0  0  0  0  0  0  0  0  0  0  0
    1.3605    2.5399   -0.7591 Br  0  0  0  0  0  0  0  0  0  0  0  0
    0.6979   -0.1448    0.0625 C   0  0  0  0  0  0  0  0  0  0  0  0
    2.1800   -0.4041    0.1801 C   0  0  0  0  0  0  0  0  0  0  0  0
    2.7917    0.4052    1.0865 F   0  0  0  0  0  0  0  0  0  0  0  0
    2.4666   -1.6760    0.5843 F   0  0  0  0  0  0  0  0  0  0  0  0
    2.8433   -0.2453   -0.9970 F   0  0  0  0  0  0  0  0  0  0  0  0
   -0.1978   -1.1885    0.3660 C   0  0  0  0  0  0  0  0  0  0  0  0
   -3.1669    0.3461   -0.1864 H   0  0  0  0  0  0  0  0  0  0  0  0
    0.1644   -2.1661    0.6802 H   0  0  0  0  0  0  0  0  0  0  0  0
  1  2  1  0
  2  3  2  0
  3  4  1  0
  4  5  1  0
  4  6  2  0
  6  7  1  0
  6  8  1  0
  8  9  1  0
  9 10  1  0
  9 11  1  0
  9 12  1  0
  8 13  2  0
 13  2  1  0
  3 14  1  0
 13 15  1  0
M  END
