
     RDKit          3D

 19 19  0  0  0  0  0  0  0  0999 V2000
   -3.0119    0.6546   -0.3523 C   0  0  0  0  0  0  0  0  0  0  0  0
   -1.9864   -0.3205   -0.5171 O   0  0  0  0  0  0  0  0  0  0  0  0
   -0.7222    0.0356   -0.1238 C   0  0  0  0  0  0  0  0  0  0  0  0
   -0.3479    1.2552    0.4246 C   0  0  0  0  0  0  0  0  0  0  0  0
    0.9885    1.4817    0.7894 C   0  0  0  0  0  0  0  0  0  0  0  0
    1.3539    3.1961    1.5445 Br  0  0  0  0  0  0  0  0  0  0  0  0
    1.9739    0.4899    0.6041 C   0  0  0  0  0  0  0  0  0  0  0  0
    3.7610    0.8206    1.1942 Br  0  0  0  0  0  0  0  0  0  0  0  0
    1.5978   -0.7395    0.0323 C   0  0  0  0  0  0  0  0  0  0  0  0
    2.5353   -1.8571   -0.2486 C   0  0  0  0  0  0  0  0  0  0  0  0
    3.7448   -1.7265   -0.3787 O   0  0  0  0  0  0  0  0  0  0  0  0
    0.2535   -0.9511   -0.3130 C   0  0  0  0  0  0  0  0  0  0  0  0
   -0.1420   -2.1462   -0.8659 O   0  0  0  0  0  0  0  0  0  0  0  0
   -3.1466    0.9090    0.7041 H   0  0  0  0  0  0  0  0  0  0  0  0
   -2.8067    1.5469   -0.9527 H   0  0  0  0  0  0  0  0  0  0  0  0
   -3.9482    0.2178   -0.7125 H   0  0  0  0  0  0  0  0  0  0  0  0
   -1.0750    2.0456    0.5843 H   0  0  0  0  0  0  0  0  0  0  0  0
    2.0801   -2.8540   -0.3732 H   0  0  0  0  0  0  0  0  0  0  0  0
   -1.1019   -2.0581   -1.0397 H   0  0  0  0  0  0  0  0  0  0  0  0
  1  2  1  0
  2  3  1  0
  3  4  2  0
  4  5  1  0
  5  6  1  0
  5  7  2  0
  7  8  1  0
  7  9  1  0
  9 10  1  0
 10 11  2  0
  9 12  2  0
 12 13  1  0
 12  3  1  0
  1 14  1  0
  1 15  1  0
  1 16  1  0
  4 17  1  0
 10 18  1  0
 13 19  1  0
M  END
