
     RDKit          3D

 25 25  0  0  0  0  0  0  0  0999 V2000
   -3.5431    1.6911    0.1832 C   0  0  0  0  0  0  0  0  0  0  0  0
   -2.1785    1.1946   -0.2580 C   0  0  0  0  0  0  0  0  0  0  0  0
   -1.4966    0.6948    0.8995 O   0  0  0  0  0  0  0  0  0  0  0  0
   -0.1702    0.4503    0.6198 C   0  0  0  0  0  0  0  0  0  0  0  0
    0.1914   -0.7556   -0.0022 C   0  0  0  0  0  0  0  0  0  0  0  0
   -0.8319   -1.6051   -0.3284 O   0  0  0  0  0  0  0  0  0  0  0  0
   -0.4975   -2.8960   -0.8208 C   0  0  0  0  0  0  0  0  0  0  0  0
    1.5393   -1.0059   -0.2502 C   0  0  0  0  0  0  0  0  0  0  0  0
    2.5231   -0.0762    0.1336 C   0  0  0  0  0  0  0  0  0  0  0  0
    3.9119   -0.4587   -0.2229 C   0  0  0  0  0  0  0  0  0  0  0  0
    4.7996    0.3410   -0.4779 O   0  0  0  0  0  0  0  0  0  0  0  0
    2.1699    1.1108    0.8003 C   0  0  0  0  0  0  0  0  0  0  0  0
    3.5106    2.3158    1.4359 Br  0  0  0  0  0  0  0  0  0  0  0  0
    0.8080    1.3697    1.0463 C   0  0  0  0  0  0  0  0  0  0  0  0
    0.2253    2.9479    1.9617 Br  0  0  0  0  0  0  0  0  0  0  0  0
   -4.1159    0.8818    0.6479 H   0  0  0  0  0  0  0  0  0  0  0  0
   -3.4413    2.4819    0.9337 H   0  0  0  0  0  0  0  0  0  0  0  0
   -4.1094    2.0818   -0.6668 H   0  0  0  0  0  0  0  0  0  0  0  0
   -2.3068    0.3989   -0.9999 H   0  0  0  0  0  0  0  0  0  0  0  0
   -1.6213    2.0226   -0.7136 H   0  0  0  0  0  0  0  0  0  0  0  0
   -1.4285   -3.4559   -0.9509 H   0  0  0  0  0  0  0  0  0  0  0  0
   -0.0106   -2.8274   -1.7989 H   0  0  0  0  0  0  0  0  0  0  0  0
    0.1250   -3.4445   -0.1061 H   0  0  0  0  0  0  0  0  0  0  0  0
    1.8470   -1.9145   -0.7595 H   0  0  0  0  0  0  0  0  0  0  0  0
    4.1006   -1.5431   -0.3056 H   0  0  0  0  0  0  0  0  0  0  0  0
  1  2  1  0
  2  3  1  0
  3  4  1  0
  4  5  2  0
  5  6  1  0
  6  7  1  0
  5  8  1  0
  8  9  2  0
  9 10  1  0
 10 11  2  0
  9 12  1  0
 12 13  1  0
 12 14  2  0
 14 15  1  0
 14  4  1  0
  1 16  1  0
  1 17  1  0
  1 18  1  0
  2 19  1  0
  2 20  1  0
  7 21  1  0
  7 22  1  0
  7 23  1  0
  8 24  1  0
 10 25  1  0
M  END
