
     RDKit          3D

 19 20  0  0  0  0  0  0  0  0999 V2000
   -3.2782   -0.8357   -0.1457 C   0  0  0  0  0  0  0  0  0  0  0  0
   -2.7426    0.4729    0.0191 O   0  0  0  0  0  0  0  0  0  0  0  0
   -1.3605    0.4889    0.1091 C   0  0  0  0  0  0  0  0  0  0  0  0
   -0.7955    1.7487    0.2710 C   0  0  0  0  0  0  0  0  0  0  0  0
    0.5921    1.8683    0.3717 C   0  0  0  0  0  0  0  0  0  0  0  0
    1.3533    0.6890    0.3027 C   0  0  0  0  0  0  0  0  0  0  0  0
    2.7272    0.3396    0.3557 C   0  0  0  0  0  0  0  0  0  0  0  0
    4.1161    1.5867    0.5690 Br  0  0  0  0  0  0  0  0  0  0  0  0
    2.8290   -1.0239    0.2261 C   0  0  0  0  0  0  0  0  0  0  0  0
    4.4040   -2.0848    0.2209 Br  0  0  0  0  0  0  0  0  0  0  0  0
    1.5655   -1.5280    0.0950 N   0  0  0  0  0  0  0  0  0  0  0  0
    0.6565   -0.5064    0.1388 C   0  0  0  0  0  0  0  0  0  0  0  0
   -0.6742   -0.6744    0.0369 N   0  0  0  0  0  0  0  0  0  0  0  0
   -3.0454   -1.4716    0.7155 H   0  0  0  0  0  0  0  0  0  0  0  0
   -4.3671   -0.7445   -0.2063 H   0  0  0  0  0  0  0  0  0  0  0  0
   -2.9307   -1.2925   -1.0789 H   0  0  0  0  0  0  0  0  0  0  0  0
   -1.4291    2.6280    0.3182 H   0  0  0  0  0  0  0  0  0  0  0  0
    1.0585    2.8398    0.4985 H   0  0  0  0  0  0  0  0  0  0  0  0
    1.3212   -2.5001   -0.0177 H   0  0  0  0  0  0  0  0  0  0  0  0
  1  2  1  0
  2  3  1  0
  3  4  2  0
  4  5  1  0
  5  6  2  0
  6  7  1  0
  7  8  1  0
  7  9  2  0
  9 10  1  0
  9 11  1  0
 11 12  1  0
 12 13  2  0
 13  3  1  0
 12  6  1  0
  1 14  1  0
  1 15  1  0
  1 16  1  0
  4 17  1  0
  5 18  1  0
 11 19  1  0
M  END
