
     RDKit          3D

 31 31  0  0  0  0  0  0  0  0999 V2000
    3.0752   -1.9890    0.3535 C   0  0  0  0  0  0  0  0  0  0  0  0
    2.5861   -0.5686    0.1359 C   0  0  0  0  0  0  0  0  0  0  0  0
    1.1773   -0.6193   -0.0762 O   0  0  0  0  0  0  0  0  0  0  0  0
    0.5144    0.5453   -0.3568 C   0  0  0  0  0  0  0  0  0  0  0  0
    1.1076    1.8066   -0.3606 C   0  0  0  0  0  0  0  0  0  0  0  0
    0.3606    2.9494   -0.6961 C   0  0  0  0  0  0  0  0  0  0  0  0
    1.1116    4.2270   -0.6238 C   0  0  0  0  0  0  0  0  0  0  0  0
    0.6066    5.3038   -0.3447 O   0  0  0  0  0  0  0  0  0  0  0  0
   -0.9896    2.8392   -1.0702 C   0  0  0  0  0  0  0  0  0  0  0  0
   -1.9692    4.3709   -1.6613 Br  0  0  0  0  0  0  0  0  0  0  0  0
   -1.5937    1.5665   -1.0615 C   0  0  0  0  0  0  0  0  0  0  0  0
   -3.4164    1.3158   -1.5983 Br  0  0  0  0  0  0  0  0  0  0  0  0
   -0.8528    0.4338   -0.6671 C   0  0  0  0  0  0  0  0  0  0  0  0
   -1.4680   -0.7981   -0.6996 O   0  0  0  0  0  0  0  0  0  0  0  0
   -1.5652   -1.4349    0.5871 C   0  0  0  0  0  0  0  0  0  0  0  0
   -1.2015   -2.9044    0.3991 C   0  0  0  0  0  0  0  0  0  0  0  0
   -2.9991   -1.3073    1.0936 C   0  0  0  0  0  0  0  0  0  0  0  0
    4.1552   -2.0080    0.5242 H   0  0  0  0  0  0  0  0  0  0  0  0
    2.5725   -2.4421    1.2145 H   0  0  0  0  0  0  0  0  0  0  0  0
    2.8431   -2.6139   -0.5154 H   0  0  0  0  0  0  0  0  0  0  0  0
    3.0895   -0.1456   -0.7410 H   0  0  0  0  0  0  0  0  0  0  0  0
    2.8129    0.0282    1.0265 H   0  0  0  0  0  0  0  0  0  0  0  0
    2.1528    1.9261   -0.0908 H   0  0  0  0  0  0  0  0  0  0  0  0
    2.2009    4.1488   -0.7839 H   0  0  0  0  0  0  0  0  0  0  0  0
   -0.8931   -0.9928    1.3331 H   0  0  0  0  0  0  0  0  0  0  0  0
   -1.8621   -3.3817   -0.3334 H   0  0  0  0  0  0  0  0  0  0  0  0
   -0.1822   -3.0041    0.0121 H   0  0  0  0  0  0  0  0  0  0  0  0
   -1.2695   -3.4543    1.3428 H   0  0  0  0  0  0  0  0  0  0  0  0
   -3.1378   -1.8513    2.0331 H   0  0  0  0  0  0  0  0  0  0  0  0
   -3.2521   -0.2566    1.2683 H   0  0  0  0  0  0  0  0  0  0  0  0
   -3.7138   -1.6894    0.3565 H   0  0  0  0  0  0  0  0  0  0  0  0
  1  2  1  0
  2  3  1  0
  3  4  1  0
  4  5  2  0
  5  6  1  0
  6  7  1  0
  7  8  2  0
  6  9  2  0
  9 10  1  0
  9 11  1  0
 11 12  1  0
 11 13  2  0
 13 14  1  0
 14 15  1  0
 15 16  1  0
 15 17  1  0
 13  4  1  0
  1 18  1  0
  1 19  1  0
  1 20  1  0
  2 21  1  0
  2 22  1  0
  5 23  1  0
  7 24  1  0
 15 25  1  0
 16 26  1  0
 16 27  1  0
 16 28  1  0
 17 29  1  0
 17 30  1  0
 17 31  1  0
M  END
