
     RDKit          3D

 11 11  0  0  0  0  0  0  0  0999 V2000
   -2.3738   -2.1381   -0.3139 Cl  0  0  0  0  0  0  0  0  0  0  0  0
   -1.0853   -1.0202   -0.1499 C   0  0  0  0  0  0  0  0  0  0  0  0
   -1.3353    0.3250    0.0526 C   0  0  0  0  0  0  0  0  0  0  0  0
   -0.2429    1.1789    0.1775 C   0  0  0  0  0  0  0  0  0  0  0  0
    1.0503    0.6582    0.0957 C   0  0  0  0  0  0  0  0  0  0  0  0
    2.4981    1.8676    0.2730 Br  0  0  0  0  0  0  0  0  0  0  0  0
    1.1955   -0.7148   -0.1106 C   0  0  0  0  0  0  0  0  0  0  0  0
    2.9078   -1.5403   -0.2394 Br  0  0  0  0  0  0  0  0  0  0  0  0
    0.1439   -1.5619   -0.2347 N   0  0  0  0  0  0  0  0  0  0  0  0
   -2.3497    0.7039    0.1123 H   0  0  0  0  0  0  0  0  0  0  0  0
   -0.4085    2.2416    0.3374 H   0  0  0  0  0  0  0  0  0  0  0  0
  1  2  1  0
  2  3  2  0
  3  4  1  0
  4  5  2  0
  5  6  1  0
  5  7  1  0
  7  8  1  0
  7  9  2  0
  9  2  1  0
  3 10  1  0
  4 11  1  0
M  END
