
     RDKit          3D

 14 14  0  0  0  0  0  0  0  0999 V2000
    1.9918   -0.3260    0.0944 C   0  0  0  0  0  0  0  0  0  0  0  0
    0.5032   -0.1235    0.0235 C   0  0  0  0  0  0  0  0  0  0  0  0
   -0.3284   -1.2498   -0.0270 C   0  0  0  0  0  0  0  0  0  0  0  0
   -1.6994   -1.0730   -0.0924 C   0  0  0  0  0  0  0  0  0  0  0  0
   -2.2951    0.1337   -0.1109 N   0  0  0  0  0  0  0  0  0  0  0  0
   -1.4896    1.2256   -0.0620 C   0  0  0  0  0  0  0  0  0  0  0  0
   -2.4247    2.8890   -0.0932 Br  0  0  0  0  0  0  0  0  0  0  0  0
   -0.0932    1.1513    0.0055 C   0  0  0  0  0  0  0  0  0  0  0  0
    0.9994    2.7118    0.0725 Br  0  0  0  0  0  0  0  0  0  0  0  0
    2.2514   -1.3904    0.0977 H   0  0  0  0  0  0  0  0  0  0  0  0
    2.4824    0.1237   -0.7747 H   0  0  0  0  0  0  0  0  0  0  0  0
    2.3950    0.1079    1.0150 H   0  0  0  0  0  0  0  0  0  0  0  0
    0.0806   -2.2559   -0.0158 H   0  0  0  0  0  0  0  0  0  0  0  0
   -2.3734   -1.9245   -0.1327 H   0  0  0  0  0  0  0  0  0  0  0  0
  1  2  1  0
  2  3  2  0
  3  4  1  0
  4  5  2  0
  5  6  1  0
  6  7  1  0
  6  8  2  0
  8  9  1  0
  8  2  1  0
  1 10  1  0
  1 11  1  0
  1 12  1  0
  3 13  1  0
  4 14  1  0
M  END
