
     RDKit          3D

 10 10  0  0  0  0  0  0  0  0999 V2000
    2.2960    2.0415   -0.6279 Br  0  0  0  0  0  0  0  0  0  0  0  0
    0.8898    0.8174   -0.2507 C   0  0  0  0  0  0  0  0  0  0  0  0
   -0.3688    1.3232   -0.3651 N   0  0  0  0  0  0  0  0  0  0  0  0
   -1.3775    0.4641   -0.0999 C   0  0  0  0  0  0  0  0  0  0  0  0
   -1.1529   -0.8503    0.2659 C   0  0  0  0  0  0  0  0  0  0  0  0
    0.0906   -1.3657    0.3833 N   0  0  0  0  0  0  0  0  0  0  0  0
    1.1168   -0.5111    0.1190 C   0  0  0  0  0  0  0  0  0  0  0  0
    2.8592   -1.2548    0.2896 Br  0  0  0  0  0  0  0  0  0  0  0  0
   -2.3812    0.8651   -0.1904 H   0  0  0  0  0  0  0  0  0  0  0  0
   -1.9720   -1.5294    0.4761 H   0  0  0  0  0  0  0  0  0  0  0  0
  1  2  1  0
  2  3  2  0
  3  4  1  0
  4  5  2  0
  5  6  1  0
  6  7  2  0
  7  8  1  0
  7  2  1  0
  4  9  1  0
  5 10  1  0
M  END
