
     RDKit          3D

  9  9  0  0  0  0  0  0  0  0999 V2000
    1.6669    2.1780    0.0340 Br  0  0  0  0  0  0  0  0  0  0  0  0
    0.6134    0.6096    0.0092 C   0  0  0  0  0  0  0  0  0  0  0  0
   -0.8060    0.6931    0.0132 C   0  0  0  0  0  0  0  0  0  0  0  0
   -1.3883   -0.5576   -0.0070 C   0  0  0  0  0  0  0  0  0  0  0  0
   -0.2174   -1.8100   -0.0303 S   0  0  0  0  0  0  0  0  0  0  0  0
    1.0601   -0.6863   -0.0135 C   0  0  0  0  0  0  0  0  0  0  0  0
    2.8924   -1.2401   -0.0261 Br  0  0  0  0  0  0  0  0  0  0  0  0
   -1.3784    1.6127    0.0297 H   0  0  0  0  0  0  0  0  0  0  0  0
   -2.4426   -0.7996   -0.0092 H   0  0  0  0  0  0  0  0  0  0  0  0
  1  2  1  0
  2  3  1  0
  3  4  2  0
  4  5  1  0
  5  6  1  0
  6  7  1  0
  6  2  2  0
  3  8  1  0
  4  9  1  0
M  END
