
     RDKit          3D

 15 16  0  0  0  0  0  0  0  0999 V2000
    4.4554   -0.9439   -0.1710 Br  0  0  0  0  0  0  0  0  0  0  0  0
    2.5571   -0.6891   -0.1235 C   0  0  0  0  0  0  0  0  0  0  0  0
    1.4851   -1.9802   -0.3436 S   0  0  0  0  0  0  0  0  0  0  0  0
    0.1082   -0.9572   -0.1649 C   0  0  0  0  0  0  0  0  0  0  0  0
   -1.2438   -1.3500   -0.2299 C   0  0  0  0  0  0  0  0  0  0  0  0
   -2.2392   -0.3864   -0.0622 C   0  0  0  0  0  0  0  0  0  0  0  0
   -1.9032    0.9394    0.1653 C   0  0  0  0  0  0  0  0  0  0  0  0
   -0.5608    1.3263    0.2293 C   0  0  0  0  0  0  0  0  0  0  0  0
    0.4798    0.3743    0.0635 C   0  0  0  0  0  0  0  0  0  0  0  0
    1.9115    0.5010    0.0825 C   0  0  0  0  0  0  0  0  0  0  0  0
    2.7538    2.1776    0.3695 Br  0  0  0  0  0  0  0  0  0  0  0  0
   -1.5105   -2.3884   -0.4081 H   0  0  0  0  0  0  0  0  0  0  0  0
   -3.2854   -0.6799   -0.1107 H   0  0  0  0  0  0  0  0  0  0  0  0
   -2.6852    1.6840    0.2950 H   0  0  0  0  0  0  0  0  0  0  0  0
   -0.3229    2.3724    0.4089 H   0  0  0  0  0  0  0  0  0  0  0  0
  1  2  1  0
  2  3  1  0
  3  4  1  0
  4  5  2  0
  5  6  1  0
  6  7  2  0
  7  8  1  0
  8  9  2  0
  9 10  1  0
 10 11  1  0
 10  2  2  0
  9  4  1  0
  5 12  1  0
  6 13  1  0
  7 14  1  0
  8 15  1  0
M  END
