
     RDKit          3D

 19 19  0  0  0  0  0  0  0  0999 V2000
   -2.8063    0.0653    1.3207 C   0  0  0  0  0  0  0  0  0  0  0  0
   -1.6495   -0.7172    1.0396 O   0  0  0  0  0  0  0  0  0  0  0  0
   -0.6374   -0.1028    0.3481 C   0  0  0  0  0  0  0  0  0  0  0  0
   -0.6317    1.2116   -0.0999 C   0  0  0  0  0  0  0  0  0  0  0  0
    0.4808    1.7132   -0.7936 C   0  0  0  0  0  0  0  0  0  0  0  0
    0.3557    3.5392   -1.3346 Br  0  0  0  0  0  0  0  0  0  0  0  0
    1.6044    0.9019   -1.0553 C   0  0  0  0  0  0  0  0  0  0  0  0
    3.1250    1.6589   -1.9308 Br  0  0  0  0  0  0  0  0  0  0  0  0
    1.5911   -0.4349   -0.6166 C   0  0  0  0  0  0  0  0  0  0  0  0
    2.6895   -1.4070   -0.8514 C   0  0  0  0  0  0  0  0  0  0  0  0
    3.5261   -1.3015   -1.7379 O   0  0  0  0  0  0  0  0  0  0  0  0
    0.4745   -0.9132    0.0874 C   0  0  0  0  0  0  0  0  0  0  0  0
    0.4394   -2.2131    0.5341 O   0  0  0  0  0  0  0  0  0  0  0  0
   -2.5577    0.9199    1.9584 H   0  0  0  0  0  0  0  0  0  0  0  0
   -3.2969    0.3884    0.3968 H   0  0  0  0  0  0  0  0  0  0  0  0
   -3.5110   -0.5669    1.8695 H   0  0  0  0  0  0  0  0  0  0  0  0
   -1.4761    1.8698    0.0806 H   0  0  0  0  0  0  0  0  0  0  0  0
    2.7100   -2.2874   -0.1872 H   0  0  0  0  0  0  0  0  0  0  0  0
   -0.4297   -2.3241    0.9720 H   0  0  0  0  0  0  0  0  0  0  0  0
  1  2  1  0
  2  3  1  0
  3  4  2  0
  4  5  1  0
  5  6  1  0
  5  7  2  0
  7  8  1  0
  7  9  1  0
  9 10  1  0
 10 11  2  0
  9 12  2  0
 12 13  1  0
 12  3  1  0
  1 14  1  0
  1 15  1  0
  1 16  1  0
  4 17  1  0
 10 18  1  0
 13 19  1  0
M  END
