
     RDKit          3D

 15 15  0  0  0  0  0  0  0  0999 V2000
   -2.1394   -2.3326    0.2417 F   0  0  0  0  0  0  0  0  0  0  0  0
   -1.4366   -1.1972    0.1519 C   0  0  0  0  0  0  0  0  0  0  0  0
   -2.0978    0.0195    0.1723 C   0  0  0  0  0  0  0  0  0  0  0  0
   -1.3628    1.2038    0.0785 C   0  0  0  0  0  0  0  0  0  0  0  0
   -2.3669    2.8204    0.1158 Br  0  0  0  0  0  0  0  0  0  0  0  0
    0.0417    1.1653   -0.0361 C   0  0  0  0  0  0  0  0  0  0  0  0
    1.0452    2.7854   -0.1643 Br  0  0  0  0  0  0  0  0  0  0  0  0
    0.7091   -0.0776   -0.0562 C   0  0  0  0  0  0  0  0  0  0  0  0
    2.2091   -0.1922   -0.1766 C   0  0  0  0  0  0  0  0  0  0  0  0
    2.6935    0.3477   -1.3275 F   0  0  0  0  0  0  0  0  0  0  0  0
    2.8728    0.4090    0.8476 F   0  0  0  0  0  0  0  0  0  0  0  0
    2.6450   -1.4857   -0.1761 F   0  0  0  0  0  0  0  0  0  0  0  0
   -0.0542   -1.2574    0.0398 C   0  0  0  0  0  0  0  0  0  0  0  0
   -3.1803    0.0284    0.2612 H   0  0  0  0  0  0  0  0  0  0  0  0
    0.4216   -2.2368    0.0280 H   0  0  0  0  0  0  0  0  0  0  0  0
  1  2  1  0
  2  3  2  0
  3  4  1  0
  4  5  1  0
  4  6  2  0
  6  7  1  0
  6  8  1  0
  8  9  1  0
  9 10  1  0
  9 11  1  0
  9 12  1  0
  8 13  2  0
 13  2  1  0
  3 14  1  0
 13 15  1  0
M  END
