
     RDKit          3D

 15 15  0  0  0  0  0  0  0  0999 V2000
   -2.6814    0.3931    0.0952 C   0  0  0  0  0  0  0  0  0  0  0  0
   -1.8079   -0.7235    0.2344 O   0  0  0  0  0  0  0  0  0  0  0  0
   -0.4760   -0.3903    0.0961 C   0  0  0  0  0  0  0  0  0  0  0  0
    0.4304   -1.4296    0.2200 C   0  0  0  0  0  0  0  0  0  0  0  0
    1.7864   -1.1448    0.0886 C   0  0  0  0  0  0  0  0  0  0  0  0
    2.1910    0.1666   -0.1618 C   0  0  0  0  0  0  0  0  0  0  0  0
    4.0487    0.4988   -0.3318 Br  0  0  0  0  0  0  0  0  0  0  0  0
    1.2055    1.1476   -0.2708 C   0  0  0  0  0  0  0  0  0  0  0  0
    1.6308    2.9737   -0.6111 Br  0  0  0  0  0  0  0  0  0  0  0  0
   -0.1206    0.8870   -0.1454 N   0  0  0  0  0  0  0  0  0  0  0  0
   -2.4959    1.1416    0.8734 H   0  0  0  0  0  0  0  0  0  0  0  0
   -3.7066    0.0311    0.2198 H   0  0  0  0  0  0  0  0  0  0  0  0
   -2.6039    0.8355   -0.9040 H   0  0  0  0  0  0  0  0  0  0  0  0
    0.0862   -2.4396    0.4148 H   0  0  0  0  0  0  0  0  0  0  0  0
    2.5133   -1.9473    0.1826 H   0  0  0  0  0  0  0  0  0  0  0  0
  1  2  1  0
  2  3  1  0
  3  4  2  0
  4  5  1  0
  5  6  2  0
  6  7  1  0
  6  8  1  0
  8  9  1  0
  8 10  2  0
 10  3  1  0
  1 11  1  0
  1 12  1  0
  1 13  1  0
  4 14  1  0
  5 15  1  0
M  END
