
     RDKit          3D

 17 17  0  0  0  0  0  0  0  0999 V2000
    2.7527   -0.2848    0.0222 C   0  0  0  0  0  0  0  0  0  0  0  0
    1.3274    0.1794    0.0604 C   0  0  0  0  0  0  0  0  0  0  0  0
    0.2896   -0.7305   -0.1077 C   0  0  0  0  0  0  0  0  0  0  0  0
   -1.0391   -0.2844   -0.0699 C   0  0  0  0  0  0  0  0  0  0  0  0
   -2.1445   -1.2875   -0.2543 C   0  0  0  0  0  0  0  0  0  0  0  0
   -1.2798    1.0847    0.1392 C   0  0  0  0  0  0  0  0  0  0  0  0
   -3.0695    1.7374    0.1982 Br  0  0  0  0  0  0  0  0  0  0  0  0
   -0.1765    1.9289    0.2986 C   0  0  0  0  0  0  0  0  0  0  0  0
   -0.3588    3.8064    0.5889 Br  0  0  0  0  0  0  0  0  0  0  0  0
    1.1096    1.4953    0.2618 N   0  0  0  0  0  0  0  0  0  0  0  0
    3.4401    0.5542    0.1707 H   0  0  0  0  0  0  0  0  0  0  0  0
    2.9758   -0.7407   -0.9474 H   0  0  0  0  0  0  0  0  0  0  0  0
    2.9329   -1.0176    0.8149 H   0  0  0  0  0  0  0  0  0  0  0  0
    0.5171   -1.7815   -0.2672 H   0  0  0  0  0  0  0  0  0  0  0  0
   -2.7428   -1.0417   -1.1374 H   0  0  0  0  0  0  0  0  0  0  0  0
   -1.7481   -2.2979   -0.4034 H   0  0  0  0  0  0  0  0  0  0  0  0
   -2.7858   -1.3196    0.6323 H   0  0  0  0  0  0  0  0  0  0  0  0
  1  2  1  0
  2  3  2  0
  3  4  1  0
  4  5  1  0
  4  6  2  0
  6  7  1  0
  6  8  1  0
  8  9  1  0
  8 10  2  0
 10  2  1  0
  1 11  1  0
  1 12  1  0
  1 13  1  0
  3 14  1  0
  5 15  1  0
  5 16  1  0
  5 17  1  0
M  END
