
     RDKit          3D

 28 29  0  0  0  0  0  0  0  0999 V2000
    4.7044    1.6533   -0.3074 C   0  0  0  0  0  0  0  0  0  0  0  0
    3.3557    1.7936    0.1222 O   0  0  0  0  0  0  0  0  0  0  0  0
    2.6014    0.6558    0.1847 C   0  0  0  0  0  0  0  0  0  0  0  0
    3.0078   -0.6205   -0.2068 C   0  0  0  0  0  0  0  0  0  0  0  0
    2.1339   -1.7083   -0.0861 C   0  0  0  0  0  0  0  0  0  0  0  0
    0.8435   -1.5261    0.4170 C   0  0  0  0  0  0  0  0  0  0  0  0
   -0.2605   -3.0582    0.5934 Br  0  0  0  0  0  0  0  0  0  0  0  0
    0.4294   -0.2446    0.7885 C   0  0  0  0  0  0  0  0  0  0  0  0
   -0.9156    0.0344    1.3220 C   0  0  0  0  0  0  0  0  0  0  0  0
   -1.0148    0.3667    2.4992 O   0  0  0  0  0  0  0  0  0  0  0  0
   -2.1199   -0.0483    0.4495 C   0  0  0  0  0  0  0  0  0  0  0  0
   -3.3801   -0.0941    1.0615 C   0  0  0  0  0  0  0  0  0  0  0  0
   -4.5394   -0.1706    0.2859 C   0  0  0  0  0  0  0  0  0  0  0  0
   -4.4389   -0.1947   -1.1036 C   0  0  0  0  0  0  0  0  0  0  0  0
   -6.0053   -0.2984   -2.1562 Br  0  0  0  0  0  0  0  0  0  0  0  0
   -3.1914   -0.1388   -1.7242 C   0  0  0  0  0  0  0  0  0  0  0  0
   -2.0300   -0.0622   -0.9491 C   0  0  0  0  0  0  0  0  0  0  0  0
    1.3116    0.8386    0.6872 C   0  0  0  0  0  0  0  0  0  0  0  0
    4.7523    1.3048   -1.3443 H   0  0  0  0  0  0  0  0  0  0  0  0
    5.2650    0.9898    0.3595 H   0  0  0  0  0  0  0  0  0  0  0  0
    5.1730    2.6413   -0.2660 H   0  0  0  0  0  0  0  0  0  0  0  0
    4.0014   -0.8074   -0.6024 H   0  0  0  0  0  0  0  0  0  0  0  0
    2.4780   -2.6974   -0.3811 H   0  0  0  0  0  0  0  0  0  0  0  0
   -3.4622   -0.0735    2.1471 H   0  0  0  0  0  0  0  0  0  0  0  0
   -5.5092   -0.2093    0.7753 H   0  0  0  0  0  0  0  0  0  0  0  0
   -3.1127   -0.1506   -2.8086 H   0  0  0  0  0  0  0  0  0  0  0  0
   -1.0716   -0.0056   -1.4576 H   0  0  0  0  0  0  0  0  0  0  0  0
    0.9944    1.8302    1.0052 H   0  0  0  0  0  0  0  0  0  0  0  0
  1  2  1  0
  2  3  1  0
  3  4  2  0
  4  5  1  0
  5  6  2  0
  6  7  1  0
  6  8  1  0
  8  9  1  0
  9 10  2  0
  9 11  1  0
 11 12  2  0
 12 13  1  0
 13 14  2  0
 14 15  1  0
 14 16  1  0
 16 17  2  0
  8 18  2  0
 18  3  1  0
 17 11  1  0
  1 19  1  0
  1 20  1  0
  1 21  1  0
  4 22  1  0
  5 23  1  0
 12 24  1  0
 13 25  1  0
 16 26  1  0
 17 27  1  0
 18 28  1  0
M  END
