
     RDKit          3D

 24 25  0  0  0  0  0  0  0  0999 V2000
   -0.2054   -2.1868    1.2999 O   0  0  0  0  0  0  0  0  0  0  0  0
   -0.0913   -1.1242    0.6960 C   0  0  0  0  0  0  0  0  0  0  0  0
   -1.2962   -0.3365    0.3148 C   0  0  0  0  0  0  0  0  0  0  0  0
   -2.4996   -0.5996    0.9835 C   0  0  0  0  0  0  0  0  0  0  0  0
   -3.6576    0.1108    0.6584 C   0  0  0  0  0  0  0  0  0  0  0  0
   -3.6138    1.0802   -0.3415 C   0  0  0  0  0  0  0  0  0  0  0  0
   -5.1787    2.0435   -0.7838 Br  0  0  0  0  0  0  0  0  0  0  0  0
   -2.4252    1.3425   -1.0219 C   0  0  0  0  0  0  0  0  0  0  0  0
   -1.2652    0.6320   -0.6977 C   0  0  0  0  0  0  0  0  0  0  0  0
    1.2629   -0.6777    0.3186 C   0  0  0  0  0  0  0  0  0  0  0  0
    1.9684   -1.4868   -0.5826 C   0  0  0  0  0  0  0  0  0  0  0  0
    3.2503   -1.1211   -0.9922 C   0  0  0  0  0  0  0  0  0  0  0  0
    3.8335    0.0435   -0.4947 C   0  0  0  0  0  0  0  0  0  0  0  0
    3.1417    0.8389    0.4223 C   0  0  0  0  0  0  0  0  0  0  0  0
    1.8561    0.4782    0.8386 C   0  0  0  0  0  0  0  0  0  0  0  0
    1.0119    1.5777    2.1345 Br  0  0  0  0  0  0  0  0  0  0  0  0
   -2.5373   -1.3581    1.7639 H   0  0  0  0  0  0  0  0  0  0  0  0
   -4.5824   -0.1013    1.1889 H   0  0  0  0  0  0  0  0  0  0  0  0
   -2.3919    2.0943   -1.8067 H   0  0  0  0  0  0  0  0  0  0  0  0
   -0.3552    0.8451   -1.2518 H   0  0  0  0  0  0  0  0  0  0  0  0
    1.5202   -2.4037   -0.9607 H   0  0  0  0  0  0  0  0  0  0  0  0
    3.7974   -1.7487   -1.6922 H   0  0  0  0  0  0  0  0  0  0  0  0
    4.8360    0.3255   -0.8093 H   0  0  0  0  0  0  0  0  0  0  0  0
    3.6216    1.7323    0.8159 H   0  0  0  0  0  0  0  0  0  0  0  0
  1  2  2  0
  2  3  1  0
  3  4  2  0
  4  5  1  0
  5  6  2  0
  6  7  1  0
  6  8  1  0
  8  9  2  0
  2 10  1  0
 10 11  2  0
 11 12  1  0
 12 13  2  0
 13 14  1  0
 14 15  2  0
 15 16  1  0
  9  3  1  0
 15 10  1  0
  4 17  1  0
  5 18  1  0
  8 19  1  0
  9 20  1  0
 11 21  1  0
 12 22  1  0
 13 23  1  0
 14 24  1  0
M  END
