
     RDKit          3D

 16 16  0  0  0  0  0  0  0  0999 V2000
   -3.0046   -0.3025   -0.7547 O   0  0  0  0  0  0  0  0  0  0  0  0
   -2.2066   -0.1421    0.1454 C   0  0  0  0  0  0  0  0  0  0  0  0
   -2.5397   -0.1568    1.4460 O   0  0  0  0  0  0  0  0  0  0  0  0
   -0.7671    0.0821   -0.0016 C   0  0  0  0  0  0  0  0  0  0  0  0
   -0.2707    1.3889   -0.0902 C   0  0  0  0  0  0  0  0  0  0  0  0
   -1.3966    2.9174   -0.0140 Br  0  0  0  0  0  0  0  0  0  0  0  0
    1.1013    1.6070   -0.2421 C   0  0  0  0  0  0  0  0  0  0  0  0
    1.9752    0.5207   -0.3095 C   0  0  0  0  0  0  0  0  0  0  0  0
    3.8281    0.8723   -0.5157 Br  0  0  0  0  0  0  0  0  0  0  0  0
    1.4830   -0.7857   -0.2276 C   0  0  0  0  0  0  0  0  0  0  0  0
    2.3654   -1.8328   -0.2999 O   0  0  0  0  0  0  0  0  0  0  0  0
    0.1078   -1.0105   -0.0749 C   0  0  0  0  0  0  0  0  0  0  0  0
   -0.5212   -2.8069    0.0314 Br  0  0  0  0  0  0  0  0  0  0  0  0
   -3.5093   -0.3054    1.4526 H   0  0  0  0  0  0  0  0  0  0  0  0
    1.4902    2.6210   -0.3094 H   0  0  0  0  0  0  0  0  0  0  0  0
    1.8649   -2.6668   -0.2359 H   0  0  0  0  0  0  0  0  0  0  0  0
  1  2  2  0
  2  3  1  0
  2  4  1  0
  4  5  2  0
  5  6  1  0
  5  7  1  0
  7  8  2  0
  8  9  1  0
  8 10  1  0
 10 11  1  0
 10 12  2  0
 12 13  1  0
 12  4  1  0
  3 14  1  0
  7 15  1  0
 11 16  1  0
M  END
