
     RDKit          3D

 16 16  0  0  0  0  0  0  0  0999 V2000
    2.5565   -0.6183   -0.3401 N   0  0  0  0  0  0  0  0  0  0  0  0
    1.2642   -0.1049   -0.1095 C   0  0  0  0  0  0  0  0  0  0  0  0
    1.0103    1.2748   -0.2577 C   0  0  0  0  0  0  0  0  0  0  0  0
    2.4327    2.5026   -0.5615 Br  0  0  0  0  0  0  0  0  0  0  0  0
   -0.2845    1.7957   -0.1669 C   0  0  0  0  0  0  0  0  0  0  0  0
   -1.3651    0.9399    0.0413 C   0  0  0  0  0  0  0  0  0  0  0  0
   -3.0904    1.7244    0.1577 Br  0  0  0  0  0  0  0  0  0  0  0  0
   -1.1317   -0.4334    0.1466 C   0  0  0  0  0  0  0  0  0  0  0  0
   -2.2495   -1.3173    0.3500 N   0  0  0  0  0  4  0  0  0  0  0  0
   -2.8153   -1.7475   -0.6627 O   0  0  0  0  0  0  0  0  0  0  0  0
   -2.5538   -1.5704    1.5226 O   0  0  0  0  0  1  0  0  0  0  0  0
    0.1613   -0.9694    0.0579 C   0  0  0  0  0  0  0  0  0  0  0  0
    0.4780   -2.8521    0.1852 Br  0  0  0  0  0  0  0  0  0  0  0  0
    2.7252   -1.5363    0.0654 H   0  0  0  0  0  0  0  0  0  0  0  0
    3.3080    0.0446   -0.1613 H   0  0  0  0  0  0  0  0  0  0  0  0
   -0.4457    2.8676   -0.2670 H   0  0  0  0  0  0  0  0  0  0  0  0
  1  2  1  0
  2  3  2  0
  3  4  1  0
  3  5  1  0
  5  6  2  0
  6  7  1  0
  6  8  1  0
  8  9  1  0
  9 10  2  0
  9 11  1  0
  8 12  2  0
 12 13  1  0
 12  2  1  0
  1 14  1  0
  1 15  1  0
  5 16  1  0
M  CHG  2   9   1  11  -1
M  END
