
     RDKit          3D

 15 15  0  0  0  0  0  0  0  0999 V2000
    2.6823   -0.1361    1.3653 O   0  0  0  0  0  0  0  0  0  0  0  0
    2.0751    0.0566    0.3321 C   0  0  0  0  0  0  0  0  0  0  0  0
    2.6711    0.3548   -0.8339 O   0  0  0  0  0  0  0  0  0  0  0  0
    0.6222    0.0044    0.1558 C   0  0  0  0  0  0  0  0  0  0  0  0
   -0.1492    1.1579    0.3461 C   0  0  0  0  0  0  0  0  0  0  0  0
    0.6153    2.8322    0.8165 Br  0  0  0  0  0  0  0  0  0  0  0  0
   -1.5376    1.1044    0.1898 C   0  0  0  0  0  0  0  0  0  0  0  0
   -2.1474   -0.1015   -0.1517 C   0  0  0  0  0  0  0  0  0  0  0  0
   -4.0248   -0.1726   -0.3627 Br  0  0  0  0  0  0  0  0  0  0  0  0
   -1.3888   -1.2558   -0.3378 C   0  0  0  0  0  0  0  0  0  0  0  0
   -0.0003   -1.2040   -0.1819 C   0  0  0  0  0  0  0  0  0  0  0  0
    0.9714   -2.8149   -0.4460 Br  0  0  0  0  0  0  0  0  0  0  0  0
    3.6291    0.3684   -0.6245 H   0  0  0  0  0  0  0  0  0  0  0  0
   -2.1412    1.9978    0.3347 H   0  0  0  0  0  0  0  0  0  0  0  0
   -1.8771   -2.1914   -0.6018 H   0  0  0  0  0  0  0  0  0  0  0  0
  1  2  2  0
  2  3  1  0
  2  4  1  0
  4  5  2  0
  5  6  1  0
  5  7  1  0
  7  8  2  0
  8  9  1  0
  8 10  1  0
 10 11  2  0
 11 12  1  0
 11  4  1  0
  3 13  1  0
  7 14  1  0
 10 15  1  0
M  END
