
     RDKit          3D

 19 18  0  0  0  0  0  0  0  0999 V2000
    0.0277    0.3969    0.0000 O   0  0  0  0  0  0  0  0  0  0  0  0
    2.9987    0.3316    0.7659 O   0  0  0  0  0  0  0  0  0  0  0  0
    2.2069    0.1468   -0.1351 C   0  0  0  0  0  0  0  0  0  0  0  0
    2.5687   -0.1414   -1.3956 O   0  0  0  0  0  0  0  0  0  0  0  0
    0.7471    0.1899   -0.0291 C   0  0  0  0  0  0  0  0  0  0  0  0
    0.0666    1.3920   -0.2614 C   0  0  0  0  0  0  0  0  0  0  0  0
    0.9633    3.0001   -0.7301 Br  0  0  0  0  0  0  0  0  0  0  0  0
   -1.3256    1.4402   -0.1502 C   0  0  0  0  0  0  0  0  0  0  0  0
   -2.0361    0.2900    0.1968 C   0  0  0  0  0  0  0  0  0  0  0  0
   -3.9244    0.4100    0.3340 Br  0  0  0  0  0  0  0  0  0  0  0  0
   -1.3599   -0.9107    0.4356 C   0  0  0  0  0  0  0  0  0  0  0  0
   -2.0845   -2.0234    0.7776 O   0  0  0  0  0  0  0  0  0  0  0  0
    0.0365   -0.9650    0.3251 C   0  0  0  0  0  0  0  0  0  0  0  0
    0.9187   -2.6213    0.6601 Br  0  0  0  0  0  0  0  0  0  0  0  0
    0.7478   -0.2515    0.0000 H   0  0  0  0  0  0  0  0  0  0  0  0
   -0.7755   -0.1453    0.0000 H   0  0  0  0  0  0  0  0  0  0  0  0
    3.5495   -0.1452   -1.3780 H   0  0  0  0  0  0  0  0  0  0  0  0
   -1.8572    2.3721   -0.3317 H   0  0  0  0  0  0  0  0  0  0  0  0
   -1.4684   -2.7658    0.9162 H   0  0  0  0  0  0  0  0  0  0  0  0
  2  3  2  0
  3  4  1  0
  3  5  1  0
  5  6  2  0
  6  7  1  0
  6  8  1  0
  8  9  2  0
  9 10  1  0
  9 11  1  0
 11 12  1  0
 11 13  2  0
 13 14  1  0
 13  5  1  0
  1 15  1  0
  1 16  1  0
  4 17  1  0
  8 18  1  0
 12 19  1  0
M  END
