
     RDKit          3D

 10 10  0  0  0  0  0  0  0  0999 V2000
   -1.7946   -2.5121    0.4080 Br  0  0  0  0  0  0  0  0  0  0  0  0
   -0.6060   -1.0534    0.1655 C   0  0  0  0  0  0  0  0  0  0  0  0
   -1.1315    0.2046    0.0156 C   0  0  0  0  0  0  0  0  0  0  0  0
   -0.2029    1.1997   -0.1543 C   0  0  0  0  0  0  0  0  0  0  0  0
   -0.8115    2.9834   -0.3721 Br  0  0  0  0  0  0  0  0  0  0  0  0
    1.1227    0.9926   -0.1770 N   0  0  0  0  0  0  0  0  0  0  0  0
    1.5219   -0.2752   -0.0210 C   0  0  0  0  0  0  0  0  0  0  0  0
    3.3885   -0.6128   -0.0467 Br  0  0  0  0  0  0  0  0  0  0  0  0
    0.7083   -1.3237    0.1518 N   0  0  0  0  0  0  0  0  0  0  0  0
   -2.1950    0.3970    0.0303 H   0  0  0  0  0  0  0  0  0  0  0  0
  1  2  1  0
  2  3  2  0
  3  4  1  0
  4  5  1  0
  4  6  2  0
  6  7  1  0
  7  8  1  0
  7  9  2  0
  9  2  1  0
  3 10  1  0
M  END
