
     RDKit          3D

 39 42  0  0  0  0  0  0  0  0999 V2000
    7.4567   -0.5562   -0.5895 Br  0  0  0  0  0  0  0  0  0  0  0  0
    5.5784   -0.4161   -0.4410 C   0  0  0  0  0  0  0  0  0  0  0  0
    4.8124   -1.5585   -0.2361 C   0  0  0  0  0  0  0  0  0  0  0  0
    3.4207   -1.4510   -0.1266 C   0  0  0  0  0  0  0  0  0  0  0  0
    2.7650   -0.2062   -0.2186 C   0  0  0  0  0  0  0  0  0  0  0  0
    1.2943   -0.0965   -0.1023 C   0  0  0  0  0  0  0  0  0  0  0  0
    0.6016   -1.2185    0.0937 N   0  0  0  0  0  0  0  0  0  0  0  0
   -0.7193   -1.0681    0.1919 C   0  0  0  0  0  0  0  0  0  0  0  0
   -1.5366   -2.2817    0.4099 C   0  0  0  0  0  0  0  0  0  0  0  0
   -2.9402   -2.2141    0.5253 C   0  0  0  0  0  0  0  0  0  0  0  0
   -3.7168   -3.3606    0.7317 C   0  0  0  0  0  0  0  0  0  0  0  0
   -3.1001   -4.6034    0.8270 C   0  0  0  0  0  0  0  0  0  0  0  0
   -4.1440   -6.1534    1.1055 Br  0  0  0  0  0  0  0  0  0  0  0  0
   -1.7178   -4.7092    0.7181 C   0  0  0  0  0  0  0  0  0  0  0  0
   -0.9474   -3.5586    0.5118 C   0  0  0  0  0  0  0  0  0  0  0  0
   -1.3542    0.1010    0.1071 N   0  0  0  0  0  0  0  0  0  0  0  0
   -0.5750    1.1647   -0.0896 C   0  0  0  0  0  0  0  0  0  0  0  0
   -1.2284    2.4880   -0.1913 C   0  0  0  0  0  0  0  0  0  0  0  0
   -0.4806    3.6651   -0.3989 C   0  0  0  0  0  0  0  0  0  0  0  0
   -1.0956    4.9191   -0.4957 C   0  0  0  0  0  0  0  0  0  0  0  0
   -2.4783    5.0195   -0.3860 C   0  0  0  0  0  0  0  0  0  0  0  0
   -3.3127    6.7096   -0.5160 Br  0  0  0  0  0  0  0  0  0  0  0  0
   -3.2488    3.8802   -0.1810 C   0  0  0  0  0  0  0  0  0  0  0  0
   -2.6272    2.6294   -0.0852 C   0  0  0  0  0  0  0  0  0  0  0  0
    0.7526    1.1175   -0.2008 N   0  0  0  0  0  0  0  0  0  0  0  0
    3.5746    0.9292   -0.4264 C   0  0  0  0  0  0  0  0  0  0  0  0
    4.9667    0.8291   -0.5369 C   0  0  0  0  0  0  0  0  0  0  0  0
    5.2813   -2.5361   -0.1598 H   0  0  0  0  0  0  0  0  0  0  0  0
    2.8443   -2.3612    0.0337 H   0  0  0  0  0  0  0  0  0  0  0  0
   -3.4481   -1.2532    0.4543 H   0  0  0  0  0  0  0  0  0  0  0  0
   -4.7965   -3.2678    0.8155 H   0  0  0  0  0  0  0  0  0  0  0  0
   -1.2267   -5.6761    0.7913 H   0  0  0  0  0  0  0  0  0  0  0  0
    0.1331   -3.6692    0.4300 H   0  0  0  0  0  0  0  0  0  0  0  0
    0.6038    3.6143   -0.4883 H   0  0  0  0  0  0  0  0  0  0  0  0
   -0.4849    5.8038   -0.6560 H   0  0  0  0  0  0  0  0  0  0  0  0
   -4.3301    3.9485   -0.0940 H   0  0  0  0  0  0  0  0  0  0  0  0
   -3.2538    1.7530    0.0755 H   0  0  0  0  0  0  0  0  0  0  0  0
    3.1207    1.9162   -0.5052 H   0  0  0  0  0  0  0  0  0  0  0  0
    5.5569    1.7277   -0.6970 H   0  0  0  0  0  0  0  0  0  0  0  0
  1  2  1  0
  2  3  2  0
  3  4  1  0
  4  5  2  0
  5  6  1  0
  6  7  2  0
  7  8  1  0
  8  9  1  0
  9 10  2  0
 10 11  1  0
 11 12  2  0
 12 13  1  0
 12 14  1  0
 14 15  2  0
  8 16  2  0
 16 17  1  0
 17 18  1  0
 18 19  2  0
 19 20  1  0
 20 21  2  0
 21 22  1  0
 21 23  1  0
 23 24  2  0
 17 25  2  0
  5 26  1  0
 26 27  2  0
 27  2  1  0
 25  6  1  0
 15  9  1  0
 24 18  1  0
  3 28  1  0
  4 29  1  0
 10 30  1  0
 11 31  1  0
 14 32  1  0
 15 33  1  0
 19 34  1  0
 20 35  1  0
 23 36  1  0
 24 37  1  0
 26 38  1  0
 27 39  1  0
M  END
