
     RDKit          3D

 15 15  0  0  0  0  0  0  0  0999 V2000
    2.6316    1.4536    0.1983 O   0  0  0  0  0  0  0  0  0  0  0  0
    1.9749    0.6124   -0.3801 C   0  0  0  0  0  0  0  0  0  0  0  0
    2.4359   -0.1039   -1.4184 O   0  0  0  0  0  0  0  0  0  0  0  0
    0.5968    0.2234   -0.0725 C   0  0  0  0  0  0  0  0  0  0  0  0
    0.3465   -0.8017    0.8486 C   0  0  0  0  0  0  0  0  0  0  0  0
    1.7395   -1.7477    1.7281 Br  0  0  0  0  0  0  0  0  0  0  0  0
   -0.9697   -1.1640    1.1510 C   0  0  0  0  0  0  0  0  0  0  0  0
   -2.0275   -0.4979    0.5347 C   0  0  0  0  0  0  0  0  0  0  0  0
   -3.8067   -0.9887    0.9444 Br  0  0  0  0  0  0  0  0  0  0  0  0
   -1.7885    0.5270   -0.3790 C   0  0  0  0  0  0  0  0  0  0  0  0
   -0.4729    0.8906   -0.6826 C   0  0  0  0  0  0  0  0  0  0  0  0
   -0.2196    2.2983   -1.9328 Br  0  0  0  0  0  0  0  0  0  0  0  0
    3.3523    0.2184   -1.5525 H   0  0  0  0  0  0  0  0  0  0  0  0
   -1.1696   -1.9606    1.8643 H   0  0  0  0  0  0  0  0  0  0  0  0
   -2.6229    1.0408   -0.8514 H   0  0  0  0  0  0  0  0  0  0  0  0
  1  2  2  0
  2  3  1  0
  2  4  1  0
  4  5  2  0
  5  6  1  0
  5  7  1  0
  7  8  2  0
  8  9  1  0
  8 10  1  0
 10 11  2  0
 11 12  1  0
 11  4  1  0
  3 13  1  0
  7 14  1  0
 10 15  1  0
M  END
