
     RDKit          3D

 11 11  0  0  0  0  0  0  0  0999 V2000
   -0.2856    3.0421   -0.0382 Br  0  0  0  0  0  0  0  0  0  0  0  0
   -0.1089    1.1603   -0.0146 C   0  0  0  0  0  0  0  0  0  0  0  0
    1.1557    0.5881   -0.0225 C   0  0  0  0  0  0  0  0  0  0  0  0
    1.2303   -0.7928   -0.0045 C   0  0  0  0  0  0  0  0  0  0  0  0
    2.9391   -1.6150   -0.0146 Br  0  0  0  0  0  0  0  0  0  0  0  0
    0.1502   -1.6004    0.0201 N   0  0  0  0  0  0  0  0  0  0  0  0
   -1.0613   -1.0075    0.0271 C   0  0  0  0  0  0  0  0  0  0  0  0
   -2.5873   -2.1328    0.0617 Br  0  0  0  0  0  0  0  0  0  0  0  0
   -1.2450    0.3632    0.0106 C   0  0  0  0  0  0  0  0  0  0  0  0
    2.0517    1.1984   -0.0421 H   0  0  0  0  0  0  0  0  0  0  0  0
   -2.2389    0.7964    0.0171 H   0  0  0  0  0  0  0  0  0  0  0  0
  1  2  1  0
  2  3  2  0
  3  4  1  0
  4  5  1  0
  4  6  2  0
  6  7  1  0
  7  8  1  0
  7  9  2  0
  9  2  1  0
  3 10  1  0
  9 11  1  0
M  END
