
     RDKit          3D

 39 42  0  0  0  0  0  0  0  0999 V2000
   -3.6679    6.3671   -1.5054 Br  0  0  0  0  0  0  0  0  0  0  0  0
   -2.7440    4.7632   -1.1262 C   0  0  0  0  0  0  0  0  0  0  0  0
   -3.4475    3.5696   -1.0078 C   0  0  0  0  0  0  0  0  0  0  0  0
   -2.7597    2.3830   -0.7268 C   0  0  0  0  0  0  0  0  0  0  0  0
   -1.3601    2.3609   -0.5582 C   0  0  0  0  0  0  0  0  0  0  0  0
   -0.6367    1.1052   -0.2613 C   0  0  0  0  0  0  0  0  0  0  0  0
   -1.3531   -0.0142   -0.1570 N   0  0  0  0  0  0  0  0  0  0  0  0
   -0.6566   -1.1188    0.1113 C   0  0  0  0  0  0  0  0  0  0  0  0
   -1.4025   -2.3899    0.2377 C   0  0  0  0  0  0  0  0  0  0  0  0
   -0.7455   -3.6051    0.5199 C   0  0  0  0  0  0  0  0  0  0  0  0
   -1.4483   -4.8100    0.6402 C   0  0  0  0  0  0  0  0  0  0  0  0
   -2.8296   -4.8218    0.4796 C   0  0  0  0  0  0  0  0  0  0  0  0
   -3.7824   -6.4453    0.6411 Br  0  0  0  0  0  0  0  0  0  0  0  0
   -3.5120   -3.6427    0.2005 C   0  0  0  0  0  0  0  0  0  0  0  0
   -2.8028   -2.4414    0.0815 C   0  0  0  0  0  0  0  0  0  0  0  0
    0.6661   -1.1563    0.2734 N   0  0  0  0  0  0  0  0  0  0  0  0
    1.2932    0.0136    0.1500 C   0  0  0  0  0  0  0  0  0  0  0  0
    2.7626    0.0290    0.3205 C   0  0  0  0  0  0  0  0  0  0  0  0
    3.4840   -1.1487    0.6040 C   0  0  0  0  0  0  0  0  0  0  0  0
    4.8746   -1.1378    0.7660 C   0  0  0  0  0  0  0  0  0  0  0  0
    5.5736    0.0585    0.6466 C   0  0  0  0  0  0  0  0  0  0  0  0
    7.4503    0.0782    0.8643 Br  0  0  0  0  0  0  0  0  0  0  0  0
    4.8959    1.2404    0.3675 C   0  0  0  0  0  0  0  0  0  0  0  0
    3.5052    1.2221    0.2068 C   0  0  0  0  0  0  0  0  0  0  0  0
    0.6869    1.1705   -0.1164 N   0  0  0  0  0  0  0  0  0  0  0  0
   -0.6812    3.5901   -0.6854 C   0  0  0  0  0  0  0  0  0  0  0  0
   -1.3626    4.7804   -0.9664 C   0  0  0  0  0  0  0  0  0  0  0  0
   -4.5272    3.5460   -1.1311 H   0  0  0  0  0  0  0  0  0  0  0  0
   -3.3346    1.4620   -0.6393 H   0  0  0  0  0  0  0  0  0  0  0  0
    0.3357   -3.6236    0.6503 H   0  0  0  0  0  0  0  0  0  0  0  0
   -0.9061   -5.7263    0.8586 H   0  0  0  0  0  0  0  0  0  0  0  0
   -4.5915   -3.6418    0.0732 H   0  0  0  0  0  0  0  0  0  0  0  0
   -3.3614   -1.5323   -0.1375 H   0  0  0  0  0  0  0  0  0  0  0  0
    2.9609   -2.0990    0.7026 H   0  0  0  0  0  0  0  0  0  0  0  0
    5.3954   -2.0666    0.9839 H   0  0  0  0  0  0  0  0  0  0  0  0
    5.4334    2.1803    0.2724 H   0  0  0  0  0  0  0  0  0  0  0  0
    2.9989    2.1616   -0.0112 H   0  0  0  0  0  0  0  0  0  0  0  0
    0.4005    3.6313   -0.5650 H   0  0  0  0  0  0  0  0  0  0  0  0
   -0.8040    5.7084   -1.0570 H   0  0  0  0  0  0  0  0  0  0  0  0
  1  2  1  0
  2  3  2  0
  3  4  1  0
  4  5  2  0
  5  6  1  0
  6  7  2  0
  7  8  1  0
  8  9  1  0
  9 10  2  0
 10 11  1  0
 11 12  2  0
 12 13  1  0
 12 14  1  0
 14 15  2  0
  8 16  2  0
 16 17  1  0
 17 18  1  0
 18 19  2  0
 19 20  1  0
 20 21  2  0
 21 22  1  0
 21 23  1  0
 23 24  2  0
 17 25  2  0
  5 26  1  0
 26 27  2  0
 27  2  1  0
 25  6  1  0
 15  9  1  0
 24 18  1  0
  3 28  1  0
  4 29  1  0
 10 30  1  0
 11 31  1  0
 14 32  1  0
 15 33  1  0
 19 34  1  0
 20 35  1  0
 23 36  1  0
 24 37  1  0
 26 38  1  0
 27 39  1  0
M  END
