
     RDKit          3D

 12 12  0  0  0  0  0  0  0  0999 V2000
   -1.5886   -0.6390   -0.0542 C   0  0  0  0  0  0  0  0  0  0  0  0
   -0.2847   -0.0296    0.0186 N   0  0  0  0  0  0  0  0  0  0  0  0
   -0.0351    1.2587    0.4223 C   0  0  0  0  0  0  0  0  0  0  0  0
   -1.3413    2.5401    0.9790 Br  0  0  0  0  0  0  0  0  0  0  0  0
    1.2491    1.5357    0.3864 N   0  0  0  0  0  0  0  0  0  0  0  0
    1.8526    0.3875   -0.0558 C   0  0  0  0  0  0  0  0  0  0  0  0
    3.7209    0.2737   -0.2801 Br  0  0  0  0  0  0  0  0  0  0  0  0
    0.9219   -0.5986   -0.2911 C   0  0  0  0  0  0  0  0  0  0  0  0
    1.2548   -2.3644   -0.9119 Br  0  0  0  0  0  0  0  0  0  0  0  0
   -2.2022   -0.0649   -0.7534 H   0  0  0  0  0  0  0  0  0  0  0  0
   -1.5148   -1.6694   -0.4044 H   0  0  0  0  0  0  0  0  0  0  0  0
   -2.0328   -0.6299    0.9446 H   0  0  0  0  0  0  0  0  0  0  0  0
  1  2  1  0
  2  3  1  0
  3  4  1  0
  3  5  2  0
  5  6  1  0
  6  7  1  0
  6  8  2  0
  8  9  1  0
  8  2  1  0
  1 10  1  0
  1 11  1  0
  1 12  1  0
M  END
