
     RDKit          3D

 39 42  0  0  0  0  0  0  0  0999 V2000
   -3.0308    4.0336   -0.8400 C   0  0  0  0  0  0  0  0  0  0  0  0
   -2.4876    2.7575   -0.6558 C   0  0  0  0  0  0  0  0  0  0  0  0
   -1.1014    2.5594   -0.4905 C   0  0  0  0  0  0  0  0  0  0  0  0
   -0.2819    3.7054   -0.5187 C   0  0  0  0  0  0  0  0  0  0  0  0
   -0.8262    4.9787   -0.7028 C   0  0  0  0  0  0  0  0  0  0  0  0
   -2.1975    5.1478   -0.8636 C   0  0  0  0  0  0  0  0  0  0  0  0
    0.3130    6.4879   -0.7337 Br  0  0  0  0  0  0  0  0  0  0  0  0
   -0.5314    1.2092   -0.2960 C   0  0  0  0  0  0  0  0  0  0  0  0
    0.7895    1.1095   -0.1474 N   0  0  0  0  0  0  0  0  0  0  0  0
    1.2567   -0.1268    0.0249 C   0  0  0  0  0  0  0  0  0  0  0  0
    0.4978   -1.2220    0.0544 N   0  0  0  0  0  0  0  0  0  0  0  0
   -0.8102   -1.0200   -0.1031 C   0  0  0  0  0  0  0  0  0  0  0  0
   -1.3729    0.1753   -0.2813 N   0  0  0  0  0  0  0  0  0  0  0  0
   -1.6964   -2.2030   -0.0782 C   0  0  0  0  0  0  0  0  0  0  0  0
   -1.1823   -3.5021    0.1053 C   0  0  0  0  0  0  0  0  0  0  0  0
   -2.0248   -4.6162    0.1279 C   0  0  0  0  0  0  0  0  0  0  0  0
   -3.3990   -4.4700   -0.0310 C   0  0  0  0  0  0  0  0  0  0  0  0
   -3.9343   -3.1987   -0.2139 C   0  0  0  0  0  0  0  0  0  0  0  0
   -3.0923   -2.0817   -0.2369 C   0  0  0  0  0  0  0  0  0  0  0  0
   -1.2897   -6.3407    0.3770 Br  0  0  0  0  0  0  0  0  0  0  0  0
    2.7155   -0.2955    0.1949 C   0  0  0  0  0  0  0  0  0  0  0  0
    3.2908   -1.5681    0.3821 C   0  0  0  0  0  0  0  0  0  0  0  0
    4.6702   -1.7210    0.5422 C   0  0  0  0  0  0  0  0  0  0  0  0
    5.5140   -0.6153    0.5206 C   0  0  0  0  0  0  0  0  0  0  0  0
    4.9731    0.6536    0.3374 C   0  0  0  0  0  0  0  0  0  0  0  0
    3.5920    0.8089    0.1769 C   0  0  0  0  0  0  0  0  0  0  0  0
    5.3977   -3.4488    0.7908 Br  0  0  0  0  0  0  0  0  0  0  0  0
   -4.1043    4.1534   -0.9647 H   0  0  0  0  0  0  0  0  0  0  0  0
   -3.1659    1.9051   -0.6420 H   0  0  0  0  0  0  0  0  0  0  0  0
    0.7948    3.6028   -0.3955 H   0  0  0  0  0  0  0  0  0  0  0  0
   -2.6239    6.1370   -1.0070 H   0  0  0  0  0  0  0  0  0  0  0  0
   -0.1107   -3.6466    0.2322 H   0  0  0  0  0  0  0  0  0  0  0  0
   -4.0568   -5.3348   -0.0138 H   0  0  0  0  0  0  0  0  0  0  0  0
   -5.0070   -3.0722   -0.3392 H   0  0  0  0  0  0  0  0  0  0  0  0
   -3.5415   -1.0998   -0.3819 H   0  0  0  0  0  0  0  0  0  0  0  0
    2.6546   -2.4513    0.4033 H   0  0  0  0  0  0  0  0  0  0  0  0
    6.5873   -0.7311    0.6449 H   0  0  0  0  0  0  0  0  0  0  0  0
    5.6226    1.5254    0.3187 H   0  0  0  0  0  0  0  0  0  0  0  0
    3.1993    1.8153    0.0353 H   0  0  0  0  0  0  0  0  0  0  0  0
  1  2  2  0
  2  3  1  0
  3  4  2  0
  4  5  1  0
  5  6  2  0
  5  7  1  0
  3  8  1  0
  8  9  2  0
  9 10  1  0
 10 11  2  0
 11 12  1  0
 12 13  2  0
 12 14  1  0
 14 15  2  0
 15 16  1  0
 16 17  2  0
 17 18  1  0
 18 19  2  0
 16 20  1  0
 10 21  1  0
 21 22  2  0
 22 23  1  0
 23 24  2  0
 24 25  1  0
 25 26  2  0
 23 27  1  0
  6  1  1  0
 13  8  1  0
 19 14  1  0
 26 21  1  0
  1 28  1  0
  2 29  1  0
  4 30  1  0
  6 31  1  0
 15 32  1  0
 17 33  1  0
 18 34  1  0
 19 35  1  0
 22 36  1  0
 24 37  1  0
 25 38  1  0
 26 39  1  0
M  END
