
     RDKit          3D

 12 12  0  0  0  0  0  0  0  0999 V2000
   -1.6284   -0.5316    0.0226 C   0  0  0  0  0  0  0  0  0  0  0  0
   -0.2853   -0.0093    0.0280 N   0  0  0  0  0  0  0  0  0  0  0  0
    0.0617    1.2772    0.3589 C   0  0  0  0  0  0  0  0  0  0  0  0
   -1.1386    2.6698    0.8862 Br  0  0  0  0  0  0  0  0  0  0  0  0
    1.3597    1.4644    0.2732 N   0  0  0  0  0  0  0  0  0  0  0  0
    1.8715    0.2578   -0.1270 C   0  0  0  0  0  0  0  0  0  0  0  0
    3.7203    0.0068   -0.3973 Br  0  0  0  0  0  0  0  0  0  0  0  0
    0.8707   -0.6732   -0.2861 C   0  0  0  0  0  0  0  0  0  0  0  0
    1.0660   -2.4856   -0.8257 Br  0  0  0  0  0  0  0  0  0  0  0  0
   -2.0396   -0.4439    1.0317 H   0  0  0  0  0  0  0  0  0  0  0  0
   -2.2241    0.0481   -0.6874 H   0  0  0  0  0  0  0  0  0  0  0  0
   -1.6341   -1.5805   -0.2770 H   0  0  0  0  0  0  0  0  0  0  0  0
  1  2  1  0
  2  3  1  0
  3  4  1  0
  3  5  2  0
  5  6  1  0
  6  7  1  0
  6  8  2  0
  8  9  1  0
  8  2  1  0
  1 10  1  0
  1 11  1  0
  1 12  1  0
M  END
