
     RDKit          3D

 13 13  0  0  0  0  0  0  0  0999 V2000
   -2.5278   -0.0357    0.0236 O   0  0  0  0  0  0  0  0  0  0  0  0
   -1.1619    0.0159   -0.0420 C   0  0  0  0  0  0  0  0  0  0  0  0
   -0.4497   -1.1265   -0.4037 C   0  0  0  0  0  0  0  0  0  0  0  0
   -1.1201   -2.2548   -0.6804 F   0  0  0  0  0  0  0  0  0  0  0  0
    0.9372   -1.1171   -0.4824 C   0  0  0  0  0  0  0  0  0  0  0  0
    1.6186    0.0622   -0.1921 C   0  0  0  0  0  0  0  0  0  0  0  0
    3.5061    0.0986   -0.2925 Br  0  0  0  0  0  0  0  0  0  0  0  0
    0.9238    1.2180    0.1724 C   0  0  0  0  0  0  0  0  0  0  0  0
   -0.4721    1.1923    0.2470 C   0  0  0  0  0  0  0  0  0  0  0  0
   -1.3827    2.7780    0.7445 Br  0  0  0  0  0  0  0  0  0  0  0  0
   -2.8005   -0.9417   -0.2142 H   0  0  0  0  0  0  0  0  0  0  0  0
    1.4633   -2.0226   -0.7669 H   0  0  0  0  0  0  0  0  0  0  0  0
    1.4658    2.1335    0.3970 H   0  0  0  0  0  0  0  0  0  0  0  0
  1  2  1  0
  2  3  2  0
  3  4  1  0
  3  5  1  0
  5  6  2  0
  6  7  1  0
  6  8  1  0
  8  9  2  0
  9 10  1  0
  9  2  1  0
  1 11  1  0
  5 12  1  0
  8 13  1  0
M  END
