
     RDKit          3D

 15 15  0  0  0  0  0  0  0  0999 V2000
   -2.2536   -0.1432   -0.0989 C   0  0  0  0  0  0  0  0  0  0  0  0
   -0.7541   -0.0555   -0.0336 C   0  0  0  0  0  0  0  0  0  0  0  0
    0.0022   -1.2382   -0.0807 C   0  0  0  0  0  0  0  0  0  0  0  0
    1.3970   -1.1983   -0.0227 C   0  0  0  0  0  0  0  0  0  0  0  0
    2.0484    0.0271    0.0832 C   0  0  0  0  0  0  0  0  0  0  0  0
    3.9366    0.0809    0.1617 Br  0  0  0  0  0  0  0  0  0  0  0  0
    1.3205    1.2129    0.1317 C   0  0  0  0  0  0  0  0  0  0  0  0
   -0.0760    1.1705    0.0734 C   0  0  0  0  0  0  0  0  0  0  0  0
   -1.0046    2.8269    0.1447 Br  0  0  0  0  0  0  0  0  0  0  0  0
   -2.7016    0.2739    0.8086 H   0  0  0  0  0  0  0  0  0  0  0  0
   -2.5910   -1.1822   -0.1802 H   0  0  0  0  0  0  0  0  0  0  0  0
   -2.6306    0.3905   -0.9771 H   0  0  0  0  0  0  0  0  0  0  0  0
   -0.4919   -2.2046   -0.1635 H   0  0  0  0  0  0  0  0  0  0  0  0
    1.9619   -2.1262   -0.0609 H   0  0  0  0  0  0  0  0  0  0  0  0
    1.8369    2.1655    0.2144 H   0  0  0  0  0  0  0  0  0  0  0  0
  1  2  1  0
  2  3  2  0
  3  4  1  0
  4  5  2  0
  5  6  1  0
  5  7  1  0
  7  8  2  0
  8  9  1  0
  8  2  1  0
  1 10  1  0
  1 11  1  0
  1 12  1  0
  3 13  1  0
  4 14  1  0
  7 15  1  0
M  END
