
     RDKit          3D

 13 13  0  0  0  0  0  0  0  0999 V2000
   -2.5100    1.3463   -0.8811 O   0  0  0  0  0  0  0  0  0  0  0  0
   -2.1907    0.3704   -0.1919 N   0  0  0  0  0  4  0  0  0  0  0  0
   -2.9696   -0.3859    0.4012 O   0  0  0  0  0  1  0  0  0  0  0  0
   -0.7931    0.0540   -0.1091 C   0  0  0  0  0  0  0  0  0  0  0  0
   -0.3663   -1.1313   -0.6782 C   0  0  0  0  0  0  0  0  0  0  0  0
    0.9298   -1.5202   -0.6719 N   0  0  0  0  0  0  0  0  0  0  0  0
    1.8214   -0.6977   -0.0718 C   0  0  0  0  0  0  0  0  0  0  0  0
    3.6391   -1.2338   -0.0565 Br  0  0  0  0  0  0  0  0  0  0  0  0
    1.4712    0.5031    0.5300 C   0  0  0  0  0  0  0  0  0  0  0  0
    0.1297    0.8867    0.5119 C   0  0  0  0  0  0  0  0  0  0  0  0
   -0.3362    2.5063    1.3799 Br  0  0  0  0  0  0  0  0  0  0  0  0
   -1.0511   -1.8198   -1.1680 H   0  0  0  0  0  0  0  0  0  0  0  0
    2.2258    1.1220    1.0055 H   0  0  0  0  0  0  0  0  0  0  0  0
  1  2  2  0
  2  3  1  0
  2  4  1  0
  4  5  2  0
  5  6  1  0
  6  7  2  0
  7  8  1  0
  7  9  1  0
  9 10  2  0
 10 11  1  0
 10  4  1  0
  5 12  1  0
  9 13  1  0
M  CHG  2   2   1   3  -1
M  END
