
     RDKit          3D

 12 12  0  0  0  0  0  0  0  0999 V2000
   -2.3155   -0.3750   -0.2358 O   0  0  0  0  0  0  0  0  0  0  0  0
   -0.9559   -0.2872   -0.1179 C   0  0  0  0  0  0  0  0  0  0  0  0
   -0.3270    0.9331    0.1198 C   0  0  0  0  0  0  0  0  0  0  0  0
   -1.3338    2.5297    0.2905 Br  0  0  0  0  0  0  0  0  0  0  0  0
    1.0546    0.9969    0.2357 C   0  0  0  0  0  0  0  0  0  0  0  0
    1.7618   -0.1814    0.1069 C   0  0  0  0  0  0  0  0  0  0  0  0
    3.0967   -0.1347    0.2165 F   0  0  0  0  0  0  0  0  0  0  0  0
    1.2003   -1.3825   -0.1226 N   0  0  0  0  0  0  0  0  0  0  0  0
   -0.1480   -1.4161   -0.2312 C   0  0  0  0  0  0  0  0  0  0  0  0
   -0.9216   -3.1239   -0.5557 Br  0  0  0  0  0  0  0  0  0  0  0  0
   -2.6940    0.5166   -0.1263 H   0  0  0  0  0  0  0  0  0  0  0  0
    1.5824    1.9244    0.4201 H   0  0  0  0  0  0  0  0  0  0  0  0
  1  2  1  0
  2  3  2  0
  3  4  1  0
  3  5  1  0
  5  6  2  0
  6  7  1  0
  6  8  1  0
  8  9  2  0
  9 10  1  0
  9  2  1  0
  1 11  1  0
  5 12  1  0
M  END
