
     RDKit          3D

 15 15  0  0  0  0  0  0  0  0999 V2000
   -2.2430   -0.0083    0.2061 C   0  0  0  0  0  0  0  0  0  0  0  0
   -0.7480   -0.0066    0.0685 C   0  0  0  0  0  0  0  0  0  0  0  0
   -0.0547    1.2101    0.0666 C   0  0  0  0  0  0  0  0  0  0  0  0
   -0.7287    2.3633    0.1874 F   0  0  0  0  0  0  0  0  0  0  0  0
    1.3300    1.2694   -0.0579 C   0  0  0  0  0  0  0  0  0  0  0  0
    2.0496    0.0880   -0.1842 C   0  0  0  0  0  0  0  0  0  0  0  0
    3.9309    0.1492   -0.3543 Br  0  0  0  0  0  0  0  0  0  0  0  0
    1.3941   -1.1413   -0.1864 C   0  0  0  0  0  0  0  0  0  0  0  0
    0.0008   -1.1863   -0.0604 C   0  0  0  0  0  0  0  0  0  0  0  0
   -0.8217   -2.8992   -0.0719 Br  0  0  0  0  0  0  0  0  0  0  0  0
   -2.7072   -0.4644   -0.6742 H   0  0  0  0  0  0  0  0  0  0  0  0
   -2.6457    1.0060    0.2948 H   0  0  0  0  0  0  0  0  0  0  0  0
   -2.5434   -0.5550    1.1057 H   0  0  0  0  0  0  0  0  0  0  0  0
    1.8222    2.2367   -0.0539 H   0  0  0  0  0  0  0  0  0  0  0  0
    1.9648   -2.0617   -0.2858 H   0  0  0  0  0  0  0  0  0  0  0  0
  1  2  1  0
  2  3  2  0
  3  4  1  0
  3  5  1  0
  5  6  2  0
  6  7  1  0
  6  8  1  0
  8  9  2  0
  9 10  1  0
  9  2  1  0
  1 11  1  0
  1 12  1  0
  1 13  1  0
  5 14  1  0
  8 15  1  0
M  END
