
     RDKit          3D

 15 15  0  0  0  0  0  0  0  0999 V2000
   -2.8222   -1.0544    0.2469 O   0  0  0  0  0  0  0  0  0  0  0  0
   -2.1227   -0.0677    0.1234 C   0  0  0  0  0  0  0  0  0  0  0  0
   -2.6333    1.1536   -0.0995 O   0  0  0  0  0  0  0  0  0  0  0  0
   -0.6518   -0.0615    0.0651 C   0  0  0  0  0  0  0  0  0  0  0  0
   -0.0570   -0.9669   -0.8269 C   0  0  0  0  0  0  0  0  0  0  0  0
    1.3324   -1.0210   -0.9501 C   0  0  0  0  0  0  0  0  0  0  0  0
    2.1249   -0.1775   -0.1741 C   0  0  0  0  0  0  0  0  0  0  0  0
    4.0068   -0.2498   -0.3390 Br  0  0  0  0  0  0  0  0  0  0  0  0
    1.5443    0.7115    0.7309 C   0  0  0  0  0  0  0  0  0  0  0  0
    0.1510    0.7678    0.8580 C   0  0  0  0  0  0  0  0  0  0  0  0
   -0.5502    1.9408    2.1770 Br  0  0  0  0  0  0  0  0  0  0  0  0
   -3.6044    1.0239   -0.0758 H   0  0  0  0  0  0  0  0  0  0  0  0
   -0.6771   -1.6282   -1.4299 H   0  0  0  0  0  0  0  0  0  0  0  0
    1.7833   -1.7218   -1.6488 H   0  0  0  0  0  0  0  0  0  0  0  0
    2.1761    1.3512    1.3428 H   0  0  0  0  0  0  0  0  0  0  0  0
  1  2  2  0
  2  3  1  0
  2  4  1  0
  4  5  2  0
  5  6  1  0
  6  7  2  0
  7  8  1  0
  7  9  1  0
  9 10  2  0
 10 11  1  0
 10  4  1  0
  3 12  1  0
  5 13  1  0
  6 14  1  0
  9 15  1  0
M  END
