
     RDKit          3D

 13 13  0  0  0  0  0  0  0  0999 V2000
   -2.7015   -0.3712   -1.3008 O   0  0  0  0  0  0  0  0  0  0  0  0
   -2.2190   -0.0053   -0.2221 N   0  0  0  0  0  4  0  0  0  0  0  0
   -2.8562    0.3861    0.7628 O   0  0  0  0  0  1  0  0  0  0  0  0
   -0.7922   -0.0901   -0.0899 C   0  0  0  0  0  0  0  0  0  0  0  0
   -0.2151   -1.3455   -0.1322 C   0  0  0  0  0  0  0  0  0  0  0  0
    1.1174   -1.5421   -0.0018 N   0  0  0  0  0  0  0  0  0  0  0  0
    1.8924   -0.4461    0.1702 C   0  0  0  0  0  0  0  0  0  0  0  0
    3.7602   -0.7107    0.3525 Br  0  0  0  0  0  0  0  0  0  0  0  0
    1.3909    0.8474    0.2139 C   0  0  0  0  0  0  0  0  0  0  0  0
    0.0140    1.0290    0.0786 C   0  0  0  0  0  0  0  0  0  0  0  0
   -0.6469    2.8056    0.0934 Br  0  0  0  0  0  0  0  0  0  0  0  0
   -0.8026   -2.2503   -0.2703 H   0  0  0  0  0  0  0  0  0  0  0  0
    2.0585    1.6933    0.3456 H   0  0  0  0  0  0  0  0  0  0  0  0
  1  2  2  0
  2  3  1  0
  2  4  1  0
  4  5  2  0
  5  6  1  0
  6  7  2  0
  7  8  1  0
  7  9  1  0
  9 10  2  0
 10 11  1  0
 10  4  1  0
  5 12  1  0
  9 13  1  0
M  CHG  2   2   1   3  -1
M  END
