
     RDKit          3D

 13 14  0  0  0  0  0  0  0  0999 V2000
    4.3884   -0.1712   -0.2793 Br  0  0  0  0  0  0  0  0  0  0  0  0
    2.4844    0.0430   -0.1737 C   0  0  0  0  0  0  0  0  0  0  0  0
    1.6928   -0.9865   -0.0052 N   0  0  0  0  0  0  0  0  0  0  0  0
    0.3784   -0.5498    0.0355 C   0  0  0  0  0  0  0  0  0  0  0  0
   -0.7409   -1.3760    0.2036 C   0  0  0  0  0  0  0  0  0  0  0  0
   -1.9757   -0.7589    0.2188 C   0  0  0  0  0  0  0  0  0  0  0  0
   -2.1598    0.5679    0.0836 N   0  0  0  0  0  0  0  0  0  0  0  0
   -1.0863    1.3821   -0.0800 C   0  0  0  0  0  0  0  0  0  0  0  0
   -1.4023    3.2375   -0.2652 Br  0  0  0  0  0  0  0  0  0  0  0  0
    0.1957    0.8302   -0.1057 C   0  0  0  0  0  0  0  0  0  0  0  0
    1.7469    1.5702   -0.2936 S   0  0  0  0  0  0  0  0  0  0  0  0
   -0.6360   -2.4480    0.3158 H   0  0  0  0  0  0  0  0  0  0  0  0
   -2.8856   -1.3406    0.3454 H   0  0  0  0  0  0  0  0  0  0  0  0
  1  2  1  0
  2  3  2  0
  3  4  1  0
  4  5  2  0
  5  6  1  0
  6  7  2  0
  7  8  1  0
  8  9  1  0
  8 10  2  0
 10 11  1  0
 11  2  1  0
 10  4  1  0
  5 12  1  0
  6 13  1  0
M  END
