
     RDKit          3D

 16 17  0  0  0  0  0  0  0  0999 V2000
    4.2751   -1.4860   -0.3029 Br  0  0  0  0  0  0  0  0  0  0  0  0
    2.6041   -0.5948   -0.1800 C   0  0  0  0  0  0  0  0  0  0  0  0
    2.6199    0.7388   -0.1617 N   0  0  0  0  0  0  0  0  0  0  0  0
    1.4177    1.3365   -0.0739 C   0  0  0  0  0  0  0  0  0  0  0  0
    1.4872    3.2456   -0.0507 Br  0  0  0  0  0  0  0  0  0  0  0  0
    0.1954    0.6547   -0.0034 C   0  0  0  0  0  0  0  0  0  0  0  0
   -1.1008    1.2327    0.0903 C   0  0  0  0  0  0  0  0  0  0  0  0
   -2.2379    0.4305    0.1535 C   0  0  0  0  0  0  0  0  0  0  0  0
   -2.0995   -0.9494    0.1244 C   0  0  0  0  0  0  0  0  0  0  0  0
   -0.8257   -1.5158    0.0323 C   0  0  0  0  0  0  0  0  0  0  0  0
    0.3240   -0.7380   -0.0320 C   0  0  0  0  0  0  0  0  0  0  0  0
    1.5043   -1.3582   -0.1187 N   0  0  0  0  0  0  0  0  0  0  0  0
   -1.2330    2.3120    0.1147 H   0  0  0  0  0  0  0  0  0  0  0  0
   -3.2247    0.8817    0.2250 H   0  0  0  0  0  0  0  0  0  0  0  0
   -2.9766   -1.5903    0.1728 H   0  0  0  0  0  0  0  0  0  0  0  0
   -0.7294   -2.6000    0.0102 H   0  0  0  0  0  0  0  0  0  0  0  0
  1  2  1  0
  2  3  2  0
  3  4  1  0
  4  5  1  0
  4  6  2  0
  6  7  1  0
  7  8  2  0
  8  9  1  0
  9 10  2  0
 10 11  1  0
 11 12  2  0
 12  2  1  0
 11  6  1  0
  7 13  1  0
  8 14  1  0
  9 15  1  0
 10 16  1  0
M  END
