
     RDKit          3D

 14 14  0  0  0  0  0  0  0  0999 V2000
    0.4303   -2.3015   -0.8659 F   0  0  0  0  0  0  0  0  0  0  0  0
   -0.0549   -1.1187   -0.4573 C   0  0  0  0  0  0  0  0  0  0  0  0
   -1.3438   -1.0813    0.0681 C   0  0  0  0  0  0  0  0  0  0  0  0
   -1.8662    0.1347    0.4934 C   0  0  0  0  0  0  0  0  0  0  0  0
   -3.6140    0.2041    1.2082 Br  0  0  0  0  0  0  0  0  0  0  0  0
   -1.1133    1.3035    0.3932 C   0  0  0  0  0  0  0  0  0  0  0  0
    0.1815    1.2511   -0.1372 C   0  0  0  0  0  0  0  0  0  0  0  0
    1.1528    2.8805   -0.2587 Br  0  0  0  0  0  0  0  0  0  0  0  0
    0.7442    0.0337   -0.5609 C   0  0  0  0  0  0  0  0  0  0  0  0
    2.0351   -0.0321   -1.1333 N   0  0  0  0  0  0  0  0  0  0  0  0
    2.8342   -0.4502   -0.3799 C   0  0  0  0  0  0  0  0  0  0  0  0
    4.0645   -1.0753    0.7757 S   0  0  0  0  0  0  0  0  0  0  0  0
   -1.9180   -2.0005    0.1327 H   0  0  0  0  0  0  0  0  0  0  0  0
   -1.5324    2.2520    0.7219 H   0  0  0  0  0  0  0  0  0  0  0  0
  1  2  1  0
  2  3  2  0
  3  4  1  0
  4  5  1  0
  4  6  2  0
  6  7  1  0
  7  8  1  0
  7  9  2  0
  9 10  1  0
 10 11  2  0
 11 12  2  0
  9  2  1  0
  3 13  1  0
  6 14  1  0
M  END
