
     RDKit          3D

 12 12  0  0  0  0  0  0  0  0999 V2000
   -2.0652   -0.8791    0.8361 O   0  0  0  0  0  0  0  0  0  0  0  0
   -1.6093   -0.2546   -0.3557 C   0  0  0  0  0  0  0  0  0  0  0  0
   -0.1385   -0.0859   -0.2416 C   0  0  0  0  0  0  0  0  0  0  0  0
    0.9325   -1.3030   -0.8212 S   0  0  0  0  0  0  0  0  0  0  0  0
    2.2569   -0.3521   -0.3225 C   0  0  0  0  0  0  0  0  0  0  0  0
    4.0689   -0.9317   -0.5696 Br  0  0  0  0  0  0  0  0  0  0  0  0
    1.9780    0.8001    0.2367 N   0  0  0  0  0  0  0  0  0  0  0  0
    0.6090    0.9504    0.2852 C   0  0  0  0  0  0  0  0  0  0  0  0
   -0.1327    2.5166    1.0615 Br  0  0  0  0  0  0  0  0  0  0  0  0
   -1.8869   -0.2701    1.5731 H   0  0  0  0  0  0  0  0  0  0  0  0
   -2.1290    0.7003   -0.4790 H   0  0  0  0  0  0  0  0  0  0  0  0
   -1.8838   -0.8909   -1.2030 H   0  0  0  0  0  0  0  0  0  0  0  0
  1  2  1  0
  2  3  1  0
  3  4  1  0
  4  5  1  0
  5  6  1  0
  5  7  2  0
  7  8  1  0
  8  9  1  0
  8  3  2  0
  1 10  1  0
  2 11  1  0
  2 12  1  0
M  END
