
     RDKit          3D

  9  9  0  0  0  0  0  0  0  0999 V2000
    2.8353   -1.1688   -0.2765 Br  0  0  0  0  0  0  0  0  0  0  0  0
    1.0714   -0.5387   -0.1112 C   0  0  0  0  0  0  0  0  0  0  0  0
    0.7029    0.7801    0.0058 C   0  0  0  0  0  0  0  0  0  0  0  0
   -0.6611    0.7499    0.0976 N   0  0  0  0  0  0  0  0  0  0  0  0
   -1.0504   -0.5592    0.0336 C   0  0  0  0  0  0  0  0  0  0  0  0
   -2.8613   -1.1385    0.1181 Br  0  0  0  0  0  0  0  0  0  0  0  0
   -0.0208   -1.3635   -0.0932 N   0  0  0  0  0  0  0  0  0  0  0  0
    1.2685    1.7003    0.0307 H   0  0  0  0  0  0  0  0  0  0  0  0
   -1.2846    1.5384    0.1953 H   0  0  0  0  0  0  0  0  0  0  0  0
  1  2  1  0
  2  3  2  0
  3  4  1  0
  4  5  1  0
  5  6  1  0
  5  7  2  0
  7  2  1  0
  3  8  1  0
  4  9  1  0
M  END
