
     RDKit          3D

 10 10  0  0  0  0  0  0  0  0999 V2000
   -2.3646   -1.9617    0.0723 Br  0  0  0  0  0  0  0  0  0  0  0  0
   -0.8534   -0.8148    0.0258 C   0  0  0  0  0  0  0  0  0  0  0  0
   -1.0596    0.5453    0.0366 C   0  0  0  0  0  0  0  0  0  0  0  0
    0.0782    1.3107    0.0013 C   0  0  0  0  0  0  0  0  0  0  0  0
    1.3166    0.7908   -0.0411 N   0  0  0  0  0  0  0  0  0  0  0  0
    1.4016   -0.5510   -0.0479 C   0  0  0  0  0  0  0  0  0  0  0  0
    3.1379   -1.3144   -0.1074 Br  0  0  0  0  0  0  0  0  0  0  0  0
    0.3590   -1.3910   -0.0159 N   0  0  0  0  0  0  0  0  0  0  0  0
   -2.0443    0.9900    0.0704 H   0  0  0  0  0  0  0  0  0  0  0  0
    0.0287    2.3961    0.0061 H   0  0  0  0  0  0  0  0  0  0  0  0
  1  2  1  0
  2  3  2  0
  3  4  1  0
  4  5  2  0
  5  6  1  0
  6  7  1  0
  6  8  2  0
  8  2  1  0
  3  9  1  0
  4 10  1  0
M  END
