
     RDKit          3D

 14 14  0  0  0  0  0  0  0  0999 V2000
   -2.3039    0.4683   -0.2075 N   0  0  0  0  0  0  0  0  0  0  0  0
   -0.9318    0.1968   -0.0204 C   0  0  0  0  0  0  0  0  0  0  0  0
   -0.4913   -1.1165    0.2481 C   0  0  0  0  0  0  0  0  0  0  0  0
   -1.6329   -2.3833    0.5484 Cl  0  0  0  0  0  0  0  0  0  0  0  0
    0.8683   -1.4344    0.3056 C   0  0  0  0  0  0  0  0  0  0  0  0
    1.8140   -0.4429    0.0598 C   0  0  0  0  0  0  0  0  0  0  0  0
    3.6530   -0.8794    0.1392 Br  0  0  0  0  0  0  0  0  0  0  0  0
    1.4065    0.8524   -0.2493 C   0  0  0  0  0  0  0  0  0  0  0  0
    2.3265    1.7987   -0.4978 F   0  0  0  0  0  0  0  0  0  0  0  0
    0.0462    1.1685   -0.3066 C   0  0  0  0  0  0  0  0  0  0  0  0
   -0.4597    2.9491   -0.7515 Br  0  0  0  0  0  0  0  0  0  0  0  0
   -2.9208   -0.1734    0.2868 H   0  0  0  0  0  0  0  0  0  0  0  0
   -2.5548    1.4468   -0.0875 H   0  0  0  0  0  0  0  0  0  0  0  0
    1.1807   -2.4507    0.5329 H   0  0  0  0  0  0  0  0  0  0  0  0
  1  2  1  0
  2  3  2  0
  3  4  1  0
  3  5  1  0
  5  6  2  0
  6  7  1  0
  6  8  1  0
  8  9  1  0
  8 10  2  0
 10 11  1  0
 10  2  1  0
  1 12  1  0
  1 13  1  0
  5 14  1  0
M  END
