
     RDKit          3D

 14 14  0  0  0  0  0  0  0  0999 V2000
    2.3522    0.1832   -0.0439 N   0  0  0  0  0  0  0  0  0  0  0  0
    0.9487    0.0698   -0.0806 C   0  0  0  0  0  0  0  0  0  0  0  0
    0.1563    1.2284   -0.0734 C   0  0  0  0  0  0  0  0  0  0  0  0
    0.7472    2.4296   -0.1796 F   0  0  0  0  0  0  0  0  0  0  0  0
   -1.2314    1.1765    0.0202 C   0  0  0  0  0  0  0  0  0  0  0  0
   -1.8534   -0.0602    0.1457 C   0  0  0  0  0  0  0  0  0  0  0  0
   -3.7367   -0.1522    0.2767 Br  0  0  0  0  0  0  0  0  0  0  0  0
   -1.0995   -1.2320    0.1871 C   0  0  0  0  0  0  0  0  0  0  0  0
    0.2949   -1.1607    0.0924 C   0  0  0  0  0  0  0  0  0  0  0  0
    1.2777   -2.7859    0.1767 Br  0  0  0  0  0  0  0  0  0  0  0  0
    2.6969    1.0459   -0.4591 H   0  0  0  0  0  0  0  0  0  0  0  0
    2.8387   -0.6486   -0.3676 H   0  0  0  0  0  0  0  0  0  0  0  0
   -1.7997    2.1007    0.0030 H   0  0  0  0  0  0  0  0  0  0  0  0
   -1.5917   -2.1945    0.3022 H   0  0  0  0  0  0  0  0  0  0  0  0
  1  2  1  0
  2  3  2  0
  3  4  1  0
  3  5  1  0
  5  6  2  0
  6  7  1  0
  6  8  1  0
  8  9  2  0
  9 10  1  0
  9  2  1  0
  1 11  1  0
  1 12  1  0
  5 13  1  0
  8 14  1  0
M  END
