
     RDKit          3D

 14 14  0  0  0  0  0  0  0  0999 V2000
   -2.3493   -0.1153   -0.1880 N   0  0  0  0  0  0  0  0  0  0  0  0
   -0.9531   -0.0519   -0.0133 C   0  0  0  0  0  0  0  0  0  0  0  0
   -0.1834   -1.2201   -0.1281 C   0  0  0  0  0  0  0  0  0  0  0  0
   -0.8022   -2.4050   -0.2572 F   0  0  0  0  0  0  0  0  0  0  0  0
    1.2077   -1.1974   -0.0923 C   0  0  0  0  0  0  0  0  0  0  0  0
    1.8597    0.0244    0.0259 C   0  0  0  0  0  0  0  0  0  0  0  0
    3.7485    0.0772    0.0738 Br  0  0  0  0  0  0  0  0  0  0  0  0
    1.1330    1.2117    0.0982 C   0  0  0  0  0  0  0  0  0  0  0  0
   -0.2652    1.1700    0.0600 C   0  0  0  0  0  0  0  0  0  0  0  0
   -1.2082    2.8189    0.1392 Br  0  0  0  0  0  0  0  0  0  0  0  0
   -2.7450   -1.0196    0.0598 H   0  0  0  0  0  0  0  0  0  0  0  0
   -2.8487    0.6730    0.2151 H   0  0  0  0  0  0  0  0  0  0  0  0
    1.7561   -2.1308   -0.1667 H   0  0  0  0  0  0  0  0  0  0  0  0
    1.6502    2.1650    0.1738 H   0  0  0  0  0  0  0  0  0  0  0  0
  1  2  1  0
  2  3  2  0
  3  4  1  0
  3  5  1  0
  5  6  2  0
  6  7  1  0
  6  8  1  0
  8  9  2  0
  9 10  1  0
  9  2  1  0
  1 11  1  0
  1 12  1  0
  5 13  1  0
  8 14  1  0
M  END
