
     RDKit          3D

 15 15  0  0  0  0  0  0  0  0999 V2000
   -2.4733   -1.9053    0.7543 O   0  0  0  0  0  0  0  0  0  0  0  0
   -2.3586   -0.5268    0.3203 S   0  0  0  0  0  0  0  0  0  0  0  0
   -3.0192    0.5508    1.0232 O   0  0  0  0  0  0  0  0  0  0  0  0
   -3.0643   -0.5314   -1.5982 Cl  0  0  0  0  0  0  0  0  0  0  0  0
   -0.6410   -0.1394    0.1184 C   0  0  0  0  0  0  0  0  0  0  0  0
    0.2943   -1.1267    0.4768 C   0  0  0  0  0  0  0  0  0  0  0  0
    1.6630   -0.8818    0.3541 C   0  0  0  0  0  0  0  0  0  0  0  0
    2.1001    0.3502   -0.1211 C   0  0  0  0  0  0  0  0  0  0  0  0
    3.9520    0.6867   -0.2890 Br  0  0  0  0  0  0  0  0  0  0  0  0
    1.1819    1.3388   -0.4725 C   0  0  0  0  0  0  0  0  0  0  0  0
   -0.1952    1.1010   -0.3523 C   0  0  0  0  0  0  0  0  0  0  0  0
   -1.3278    2.5360   -0.8650 Br  0  0  0  0  0  0  0  0  0  0  0  0
   -0.0292   -2.0957    0.8564 H   0  0  0  0  0  0  0  0  0  0  0  0
    2.3755   -1.6550    0.6336 H   0  0  0  0  0  0  0  0  0  0  0  0
    1.5419    2.2985   -0.8390 H   0  0  0  0  0  0  0  0  0  0  0  0
  1  2  2  0
  2  3  2  0
  2  4  1  0
  2  5  1  0
  5  6  2  0
  6  7  1  0
  7  8  2  0
  8  9  1  0
  8 10  1  0
 10 11  2  0
 11 12  1  0
 11  5  1  0
  6 13  1  0
  7 14  1  0
 10 15  1  0
M  END
