
     RDKit          3D

 19 19  0  0  0  0  0  0  0  0999 V2000
   -2.4832   -0.8348   -0.1362 C   0  0  0  0  0  0  0  0  0  0  0  0
   -1.0150   -0.4976   -0.0874 C   0  0  0  0  0  0  0  0  0  0  0  0
   -0.0804   -1.5451   -0.1770 C   0  0  0  0  0  0  0  0  0  0  0  0
    1.2893   -1.2919   -0.0981 C   0  0  0  0  0  0  0  0  0  0  0  0
    2.4635   -2.7781   -0.2325 Br  0  0  0  0  0  0  0  0  0  0  0  0
    1.7215    0.0211    0.0831 C   0  0  0  0  0  0  0  0  0  0  0  0
    3.1323    0.2841    0.1808 N   0  0  0  0  0  4  0  0  0  0  0  0
    3.7282    0.5372   -0.8745 O   0  0  0  0  0  0  0  0  0  0  0  0
    3.6365    0.2329    1.3100 O   0  0  0  0  0  1  0  0  0  0  0  0
    0.8162    1.0857    0.1713 C   0  0  0  0  0  0  0  0  0  0  0  0
    1.4073    2.8874    0.4323 Br  0  0  0  0  0  0  0  0  0  0  0  0
   -0.5690    0.8368    0.0407 C   0  0  0  0  0  0  0  0  0  0  0  0
   -1.5061    1.8677    0.2474 N   0  0  0  0  0  0  0  0  0  0  0  0
   -2.6476   -1.9165   -0.1857 H   0  0  0  0  0  0  0  0  0  0  0  0
   -2.9888   -0.4692    0.7633 H   0  0  0  0  0  0  0  0  0  0  0  0
   -2.9437   -0.3892   -1.0237 H   0  0  0  0  0  0  0  0  0  0  0  0
   -0.4330   -2.5691   -0.2969 H   0  0  0  0  0  0  0  0  0  0  0  0
   -2.4017    1.7385   -0.2116 H   0  0  0  0  0  0  0  0  0  0  0  0
   -1.1263    2.8003    0.0947 H   0  0  0  0  0  0  0  0  0  0  0  0
  1  2  1  0
  2  3  2  0
  3  4  1  0
  4  5  1  0
  4  6  2  0
  6  7  1  0
  7  8  2  0
  7  9  1  0
  6 10  1  0
 10 11  1  0
 10 12  2  0
 12 13  1  0
 12  2  1  0
  1 14  1  0
  1 15  1  0
  1 16  1  0
  3 17  1  0
 13 18  1  0
 13 19  1  0
M  CHG  2   7   1   9  -1
M  END
