
     RDKit          3D

  8  8  0  0  0  0  0  0  0  0999 V2000
   -2.2692    1.7103    0.2727 Br  0  0  0  0  0  0  0  0  0  0  0  0
   -0.7808    0.5565    0.0689 C   0  0  0  0  0  0  0  0  0  0  0  0
   -0.8990   -0.7740   -0.2706 C   0  0  0  0  0  0  0  0  0  0  0  0
    0.6635   -1.4790   -0.3580 S   0  0  0  0  0  0  0  0  0  0  0  0
    1.3408    0.0334    0.0587 C   0  0  0  0  0  0  0  0  0  0  0  0
    3.2362    0.2792    0.2279 Br  0  0  0  0  0  0  0  0  0  0  0  0
    0.5017    1.0219    0.2581 N   0  0  0  0  0  0  0  0  0  0  0  0
   -1.7932   -1.3483   -0.4650 H   0  0  0  0  0  0  0  0  0  0  0  0
  1  2  1  0
  2  3  2  0
  3  4  1  0
  4  5  1  0
  5  6  1  0
  5  7  2  0
  7  2  1  0
  3  8  1  0
M  END
