
     RDKit          3D

 25 25  0  0  0  0  0  0  0  0999 V2000
   -1.6734    1.4210   -0.4271 C   0  0  0  0  0  0  0  0  0  0  0  0
   -1.2152    0.0246    0.0494 C   0  0  0  0  0  0  0  0  0  0  0  0
   -1.6266   -0.1882    1.5233 C   0  0  0  0  0  0  0  0  0  0  0  0
   -2.0301   -1.0027   -0.7786 C   0  0  0  0  0  0  0  0  0  0  0  0
    0.3150   -0.1251   -0.1107 C   0  0  0  0  0  0  0  0  0  0  0  0
    0.8688   -1.1199   -0.9448 C   0  0  0  0  0  0  0  0  0  0  0  0
    2.2530   -1.2651   -1.0978 C   0  0  0  0  0  0  0  0  0  0  0  0
    2.9305   -2.6199   -2.2319 Br  0  0  0  0  0  0  0  0  0  0  0  0
    3.1360   -0.4290   -0.4291 C   0  0  0  0  0  0  0  0  0  0  0  0
    2.6208    0.5603    0.3994 C   0  0  0  0  0  0  0  0  0  0  0  0
    3.8337    1.7009    1.3115 Br  0  0  0  0  0  0  0  0  0  0  0  0
    1.2322    0.7127    0.5585 C   0  0  0  0  0  0  0  0  0  0  0  0
    0.7582    1.6991    1.3837 O   0  0  0  0  0  0  0  0  0  0  0  0
   -2.7658    1.5102   -0.3933 H   0  0  0  0  0  0  0  0  0  0  0  0
   -1.3565    1.6072   -1.4601 H   0  0  0  0  0  0  0  0  0  0  0  0
   -1.2762    2.2326    0.1890 H   0  0  0  0  0  0  0  0  0  0  0  0
   -1.2282    0.5802    2.1917 H   0  0  0  0  0  0  0  0  0  0  0  0
   -2.7171   -0.1637    1.6356 H   0  0  0  0  0  0  0  0  0  0  0  0
   -1.2761   -1.1591    1.8929 H   0  0  0  0  0  0  0  0  0  0  0  0
   -1.8355   -0.9020   -1.8528 H   0  0  0  0  0  0  0  0  0  0  0  0
   -1.8026   -2.0333   -0.4816 H   0  0  0  0  0  0  0  0  0  0  0  0
   -3.1083   -0.8606   -0.6355 H   0  0  0  0  0  0  0  0  0  0  0  0
    0.2307   -1.8057   -1.4953 H   0  0  0  0  0  0  0  0  0  0  0  0
    4.2084   -0.5471   -0.5523 H   0  0  0  0  0  0  0  0  0  0  0  0
    1.5242    2.1724    1.7558 H   0  0  0  0  0  0  0  0  0  0  0  0
  1  2  1  0
  2  3  1  0
  2  4  1  0
  2  5  1  0
  5  6  2  0
  6  7  1  0
  7  8  1  0
  7  9  2  0
  9 10  1  0
 10 11  1  0
 10 12  2  0
 12 13  1  0
 12  5  1  0
  1 14  1  0
  1 15  1  0
  1 16  1  0
  3 17  1  0
  3 18  1  0
  3 19  1  0
  4 20  1  0
  4 21  1  0
  4 22  1  0
  6 23  1  0
  9 24  1  0
 13 25  1  0
M  END
