
     RDKit          3D

 16 16  0  0  0  0  0  0  0  0999 V2000
   -2.7277   -0.2983   -0.0172 C   0  0  0  0  0  0  0  0  0  0  0  0
   -1.7545    0.7072    0.2317 O   0  0  0  0  0  0  0  0  0  0  0  0
   -0.4346    0.3632    0.1082 C   0  0  0  0  0  0  0  0  0  0  0  0
    0.0213   -0.9115   -0.2467 C   0  0  0  0  0  0  0  0  0  0  0  0
    1.3922   -1.1726   -0.3491 C   0  0  0  0  0  0  0  0  0  0  0  0
    2.3142   -0.1600   -0.0969 C   0  0  0  0  0  0  0  0  0  0  0  0
    4.1643   -0.5204   -0.2372 Br  0  0  0  0  0  0  0  0  0  0  0  0
    1.8825    1.1141    0.2572 C   0  0  0  0  0  0  0  0  0  0  0  0
    0.5119    1.3717    0.3586 C   0  0  0  0  0  0  0  0  0  0  0  0
   -0.0190    3.1318    0.8464 Br  0  0  0  0  0  0  0  0  0  0  0  0
   -3.7156    0.1499    0.1268 H   0  0  0  0  0  0  0  0  0  0  0  0
   -2.6312   -1.1256    0.6934 H   0  0  0  0  0  0  0  0  0  0  0  0
   -2.6717   -0.6544   -1.0511 H   0  0  0  0  0  0  0  0  0  0  0  0
   -0.6637   -1.7281   -0.4514 H   0  0  0  0  0  0  0  0  0  0  0  0
    1.7273   -2.1694   -0.6261 H   0  0  0  0  0  0  0  0  0  0  0  0
    2.6043    1.9023    0.4534 H   0  0  0  0  0  0  0  0  0  0  0  0
  1  2  1  0
  2  3  1  0
  3  4  2  0
  4  5  1  0
  5  6  2  0
  6  7  1  0
  6  8  1  0
  8  9  2  0
  9 10  1  0
  9  3  1  0
  1 11  1  0
  1 12  1  0
  1 13  1  0
  4 14  1  0
  5 15  1  0
  8 16  1  0
M  END
