
     RDKit          3D

 13 13  0  0  0  0  0  0  0  0999 V2000
   -2.7434    0.0582   -0.9688 O   0  0  0  0  0  0  0  0  0  0  0  0
   -2.1312    0.0942    0.1050 N   0  0  0  0  0  4  0  0  0  0  0  0
   -2.6329    0.0985    1.2352 O   0  0  0  0  0  1  0  0  0  0  0  0
   -0.7045    0.1292    0.0329 C   0  0  0  0  0  0  0  0  0  0  0  0
   -0.0549    1.3521   -0.0220 C   0  0  0  0  0  0  0  0  0  0  0  0
   -0.9735    3.0194   -0.0065 Br  0  0  0  0  0  0  0  0  0  0  0  0
    1.2985    1.4404   -0.0914 N   0  0  0  0  0  0  0  0  0  0  0  0
    2.0014    0.2830   -0.1054 C   0  0  0  0  0  0  0  0  0  0  0  0
    1.4140   -0.9679   -0.0531 C   0  0  0  0  0  0  0  0  0  0  0  0
    2.1866   -2.0620   -0.0718 F   0  0  0  0  0  0  0  0  0  0  0  0
    0.0289   -1.0560    0.0179 C   0  0  0  0  0  0  0  0  0  0  0  0
   -0.7704   -2.7756    0.0894 Br  0  0  0  0  0  0  0  0  0  0  0  0
    3.0814    0.3866   -0.1614 H   0  0  0  0  0  0  0  0  0  0  0  0
  1  2  2  0
  2  3  1  0
  2  4  1  0
  4  5  2  0
  5  6  1  0
  5  7  1  0
  7  8  2  0
  8  9  1  0
  9 10  1  0
  9 11  2  0
 11 12  1  0
 11  4  1  0
  8 13  1  0
M  CHG  2   2   1   3  -1
M  END
