
     RDKit          3D

 14 14  0  0  0  0  0  0  0  0999 V2000
   -2.9778   -0.3156   -0.8546 O   0  0  0  0  0  0  0  0  0  0  0  0
   -2.2719   -0.5932    0.1228 N   0  0  0  0  0  4  0  0  0  0  0  0
   -2.6403   -1.1886    1.1432 O   0  0  0  0  0  1  0  0  0  0  0  0
   -0.8751   -0.2341    0.0477 C   0  0  0  0  0  0  0  0  0  0  0  0
    0.0459   -1.2643   -0.1845 C   0  0  0  0  0  0  0  0  0  0  0  0
    1.4029   -0.9526   -0.2708 C   0  0  0  0  0  0  0  0  0  0  0  0
    1.8185    0.3726   -0.1229 C   0  0  0  0  0  0  0  0  0  0  0  0
    3.6589    0.7900   -0.2403 Br  0  0  0  0  0  0  0  0  0  0  0  0
    0.8935    1.3937    0.1144 C   0  0  0  0  0  0  0  0  0  0  0  0
   -0.4692    1.0927    0.2031 C   0  0  0  0  0  0  0  0  0  0  0  0
   -1.6666    2.5196    0.5593 Br  0  0  0  0  0  0  0  0  0  0  0  0
   -0.2835   -2.2952   -0.2978 H   0  0  0  0  0  0  0  0  0  0  0  0
    2.1272   -1.7440   -0.4522 H   0  0  0  0  0  0  0  0  0  0  0  0
    1.2376    2.4191    0.2326 H   0  0  0  0  0  0  0  0  0  0  0  0
  1  2  2  0
  2  3  1  0
  2  4  1  0
  4  5  2  0
  5  6  1  0
  6  7  2  0
  7  8  1  0
  7  9  1  0
  9 10  2  0
 10 11  1  0
 10  4  1  0
  5 12  1  0
  6 13  1  0
  9 14  1  0
M  CHG  2   2   1   3  -1
M  END
