
     RDKit          3D

 16 17  0  0  0  0  0  0  0  0999 V2000
    3.8270   -1.7733    0.5832 Br  0  0  0  0  0  0  0  0  0  0  0  0
    2.2022   -0.8391    0.2968 C   0  0  0  0  0  0  0  0  0  0  0  0
    2.2496    0.5081    0.0112 C   0  0  0  0  0  0  0  0  0  0  0  0
    1.0415    1.1670   -0.1942 C   0  0  0  0  0  0  0  0  0  0  0  0
    1.1393    3.0274   -0.5869 Br  0  0  0  0  0  0  0  0  0  0  0  0
   -0.1885    0.4761   -0.1119 C   0  0  0  0  0  0  0  0  0  0  0  0
   -1.4652    1.0563   -0.3040 C   0  0  0  0  0  0  0  0  0  0  0  0
   -2.5957    0.2649   -0.1950 C   0  0  0  0  0  0  0  0  0  0  0  0
   -2.5502   -1.0468    0.0881 N   0  0  0  0  0  0  0  0  0  0  0  0
   -1.3136   -1.5796    0.2679 C   0  0  0  0  0  0  0  0  0  0  0  0
   -0.1098   -0.8960    0.1858 C   0  0  0  0  0  0  0  0  0  0  0  0
    1.0561   -1.5418    0.3861 N   0  0  0  0  0  0  0  0  0  0  0  0
    3.1972    1.0317   -0.0503 H   0  0  0  0  0  0  0  0  0  0  0  0
   -1.5895    2.1088   -0.5358 H   0  0  0  0  0  0  0  0  0  0  0  0
   -3.5900    0.6795   -0.3366 H   0  0  0  0  0  0  0  0  0  0  0  0
   -1.3105   -2.6431    0.4956 H   0  0  0  0  0  0  0  0  0  0  0  0
  1  2  1  0
  2  3  2  0
  3  4  1  0
  4  5  1  0
  4  6  2  0
  6  7  1  0
  7  8  2  0
  8  9  1  0
  9 10  2  0
 10 11  1  0
 11 12  2  0
 12  2  1  0
 11  6  1  0
  3 13  1  0
  7 14  1  0
  8 15  1  0
 10 16  1  0
M  END
