
     RDKit          3D

 15 15  0  0  0  0  0  0  0  0999 V2000
    2.2437    0.1343    0.2378 C   0  0  0  0  0  0  0  0  0  0  0  0
    0.7507    0.0426    0.0868 C   0  0  0  0  0  0  0  0  0  0  0  0
   -0.0214   -0.3874    1.1786 C   0  0  0  0  0  0  0  0  0  0  0  0
   -1.4108   -0.4857    1.0778 C   0  0  0  0  0  0  0  0  0  0  0  0
   -2.0411   -0.1543   -0.1180 C   0  0  0  0  0  0  0  0  0  0  0  0
   -3.9220   -0.2876   -0.2543 Br  0  0  0  0  0  0  0  0  0  0  0  0
   -1.2972    0.2743   -1.2141 C   0  0  0  0  0  0  0  0  0  0  0  0
    0.0939    0.3721   -1.1109 C   0  0  0  0  0  0  0  0  0  0  0  0
    1.0449    0.9638   -2.6458 Br  0  0  0  0  0  0  0  0  0  0  0  0
    2.5821    1.1635    0.0810 H   0  0  0  0  0  0  0  0  0  0  0  0
    2.7423   -0.5319   -0.4734 H   0  0  0  0  0  0  0  0  0  0  0  0
    2.5640   -0.1638    1.2421 H   0  0  0  0  0  0  0  0  0  0  0  0
    0.4562   -0.6503    2.1208 H   0  0  0  0  0  0  0  0  0  0  0  0
   -1.9882   -0.8208    1.9357 H   0  0  0  0  0  0  0  0  0  0  0  0
   -1.7971    0.5312   -2.1442 H   0  0  0  0  0  0  0  0  0  0  0  0
  1  2  1  0
  2  3  2  0
  3  4  1  0
  4  5  2  0
  5  6  1  0
  5  7  1  0
  7  8  2  0
  8  9  1  0
  8  2  1  0
  1 10  1  0
  1 11  1  0
  1 12  1  0
  3 13  1  0
  4 14  1  0
  7 15  1  0
M  END
