
     RDKit          3D

 20 21  0  0  0  0  0  0  0  0999 V2000
    2.2296   -1.6010   -0.0206 N   0  0  0  0  0  0  0  0  0  0  0  0
    1.4479   -0.4373   -0.2406 C   0  0  0  0  0  0  0  0  0  0  0  0
    2.0798    0.7555   -0.6406 C   0  0  0  0  0  0  0  0  0  0  0  0
    3.9419    0.7989   -1.0350 Br  0  0  0  0  0  0  0  0  0  0  0  0
    1.3601    1.9330   -0.7986 C   0  0  0  0  0  0  0  0  0  0  0  0
   -0.0067    1.9487   -0.5232 C   0  0  0  0  0  0  0  0  0  0  0  0
   -0.8890    3.6199   -0.7910 Br  0  0  0  0  0  0  0  0  0  0  0  0
   -0.6818    0.7925   -0.0574 C   0  0  0  0  0  0  0  0  0  0  0  0
   -2.0627    0.7761    0.2649 C   0  0  0  0  0  0  0  0  0  0  0  0
   -2.6967   -0.3662    0.7523 C   0  0  0  0  0  0  0  0  0  0  0  0
   -1.9666   -1.5263    0.9392 C   0  0  0  0  0  0  0  0  0  0  0  0
   -0.6077   -1.5444    0.6242 C   0  0  0  0  0  0  0  0  0  0  0  0
    0.0647   -0.4092    0.1087 C   0  0  0  0  0  0  0  0  0  0  0  0
    3.1302   -1.5528   -0.4935 H   0  0  0  0  0  0  0  0  0  0  0  0
    1.7405   -2.4627   -0.2372 H   0  0  0  0  0  0  0  0  0  0  0  0
    1.8624    2.8369   -1.1335 H   0  0  0  0  0  0  0  0  0  0  0  0
   -2.6745    1.6679    0.1482 H   0  0  0  0  0  0  0  0  0  0  0  0
   -3.7560   -0.3400    0.9943 H   0  0  0  0  0  0  0  0  0  0  0  0
   -2.4463   -2.4182    1.3336 H   0  0  0  0  0  0  0  0  0  0  0  0
   -0.0692   -2.4712    0.8059 H   0  0  0  0  0  0  0  0  0  0  0  0
  1  2  1  0
  2  3  2  0
  3  4  1  0
  3  5  1  0
  5  6  2  0
  6  7  1  0
  6  8  1  0
  8  9  2  0
  9 10  1  0
 10 11  2  0
 11 12  1  0
 12 13  2  0
 13  2  1  0
 13  8  1  0
  1 14  1  0
  1 15  1  0
  5 16  1  0
  9 17  1  0
 10 18  1  0
 11 19  1  0
 12 20  1  0
M  END
