
     RDKit          3D

 14 14  0  0  0  0  0  0  0  0999 V2000
   -2.3214   -0.4934   -0.1378 N   0  0  0  0  0  0  0  0  0  0  0  0
   -0.9506   -0.1961    0.0084 C   0  0  0  0  0  0  0  0  0  0  0  0
   -0.0540   -1.2365    0.2895 C   0  0  0  0  0  0  0  0  0  0  0  0
   -0.5309   -2.4623    0.5579 F   0  0  0  0  0  0  0  0  0  0  0  0
    1.3196   -1.0376    0.3194 C   0  0  0  0  0  0  0  0  0  0  0  0
    1.8369    0.2247    0.0296 C   0  0  0  0  0  0  0  0  0  0  0  0
    3.7302    0.4046    0.0980 Br  0  0  0  0  0  0  0  0  0  0  0  0
    0.9777    1.2870   -0.3004 C   0  0  0  0  0  0  0  0  0  0  0  0
    1.6332    2.8522   -0.6758 Cl  0  0  0  0  0  0  0  0  0  0  0  0
   -0.4155    1.0649   -0.3266 C   0  0  0  0  0  0  0  0  0  0  0  0
   -1.6362    2.4683   -0.7866 Br  0  0  0  0  0  0  0  0  0  0  0  0
   -2.6208   -1.3103    0.3909 H   0  0  0  0  0  0  0  0  0  0  0  0
   -2.9347    0.3106   -0.0279 H   0  0  0  0  0  0  0  0  0  0  0  0
    1.9664   -1.8760    0.5612 H   0  0  0  0  0  0  0  0  0  0  0  0
  1  2  1  0
  2  3  2  0
  3  4  1  0
  3  5  1  0
  5  6  2  0
  6  7  1  0
  6  8  1  0
  8  9  1  0
  8 10  2  0
 10 11  1  0
 10  2  1  0
  1 12  1  0
  1 13  1  0
  5 14  1  0
M  END
