
     RDKit          3D

 17 17  0  0  0  0  0  0  0  0999 V2000
   -2.2332   -1.1188    0.2996 C   0  0  0  0  0  0  0  0  0  0  0  0
   -1.0086   -0.2640    0.0946 C   0  0  0  0  0  0  0  0  0  0  0  0
   -1.0937    1.1343   -0.0406 C   0  0  0  0  0  0  0  0  0  0  0  0
   -2.7427    2.0837    0.0155 Br  0  0  0  0  0  0  0  0  0  0  0  0
    0.0567    1.9136   -0.1991 C   0  0  0  0  0  0  0  0  0  0  0  0
    1.3151    1.3170   -0.2251 C   0  0  0  0  0  0  0  0  0  0  0  0
    1.4465   -0.0678   -0.1194 C   0  0  0  0  0  0  0  0  0  0  0  0
    2.7404   -0.6097   -0.0108 N   0  0  0  0  0  0  0  0  0  0  0  0
    0.2837   -0.8436    0.0930 C   0  0  0  0  0  0  0  0  0  0  0  0
    0.5078   -2.7287    0.3695 Br  0  0  0  0  0  0  0  0  0  0  0  0
   -3.1581   -0.6286   -0.0120 H   0  0  0  0  0  0  0  0  0  0  0  0
   -2.3293   -1.3879    1.3563 H   0  0  0  0  0  0  0  0  0  0  0  0
   -2.1836   -2.0295   -0.3060 H   0  0  0  0  0  0  0  0  0  0  0  0
   -0.0142    2.9957   -0.2853 H   0  0  0  0  0  0  0  0  0  0  0  0
    2.1965    1.9470   -0.3146 H   0  0  0  0  0  0  0  0  0  0  0  0
    3.4525   -0.1014   -0.5248 H   0  0  0  0  0  0  0  0  0  0  0  0
    2.7642   -1.6112   -0.1906 H   0  0  0  0  0  0  0  0  0  0  0  0
  1  2  1  0
  2  3  2  0
  3  4  1  0
  3  5  1  0
  5  6  2  0
  6  7  1  0
  7  8  1  0
  7  9  2  0
  9 10  1  0
  9  2  1  0
  1 11  1  0
  1 12  1  0
  1 13  1  0
  5 14  1  0
  6 15  1  0
  8 16  1  0
  8 17  1  0
M  END
