
     RDKit          3D

 14 14  0  0  0  0  0  0  0  0999 V2000
   -2.2362   -0.7307    0.2890 N   0  0  0  0  0  0  0  0  0  0  0  0
   -0.8967   -0.2942    0.1817 C   0  0  0  0  0  0  0  0  0  0  0  0
    0.1577   -1.2216    0.2784 C   0  0  0  0  0  0  0  0  0  0  0  0
   -0.1498   -2.8662    0.7237 Cl  0  0  0  0  0  0  0  0  0  0  0  0
    1.4788   -0.8439    0.0452 C   0  0  0  0  0  0  0  0  0  0  0  0
    1.7722    0.4698   -0.3249 C   0  0  0  0  0  0  0  0  0  0  0  0
    3.6078    0.8813   -0.6167 Br  0  0  0  0  0  0  0  0  0  0  0  0
    0.7443    1.4139   -0.4733 C   0  0  0  0  0  0  0  0  0  0  0  0
    1.1197    3.0426   -0.9492 Cl  0  0  0  0  0  0  0  0  0  0  0  0
   -0.5888    1.0214   -0.2353 C   0  0  0  0  0  0  0  0  0  0  0  0
   -2.0351    2.2648   -0.4375 Br  0  0  0  0  0  0  0  0  0  0  0  0
   -2.3514   -1.5675    0.8575 H   0  0  0  0  0  0  0  0  0  0  0  0
   -2.8973    0.0088    0.5154 H   0  0  0  0  0  0  0  0  0  0  0  0
    2.2748   -1.5785    0.1460 H   0  0  0  0  0  0  0  0  0  0  0  0
  1  2  1  0
  2  3  2  0
  3  4  1  0
  3  5  1  0
  5  6  2  0
  6  7  1  0
  6  8  1  0
  8  9  1  0
  8 10  2  0
 10 11  1  0
 10  2  1  0
  1 12  1  0
  1 13  1  0
  5 14  1  0
M  END
