
     RDKit          3D

 17 17  0  0  0  0  0  0  0  0999 V2000
   -0.1943    2.1777    0.3121 N   0  0  0  0  0  0  0  0  0  0  0  0
    0.2203    0.8354    0.2448 C   0  0  0  0  0  0  0  0  0  0  0  0
    1.5913    0.5102    0.3529 C   0  0  0  0  0  0  0  0  0  0  0  0
    2.8770    1.8433    0.7973 Br  0  0  0  0  0  0  0  0  0  0  0  0
    2.0545   -0.7934    0.1639 C   0  0  0  0  0  0  0  0  0  0  0  0
    1.1522   -1.7908   -0.1779 C   0  0  0  0  0  0  0  0  0  0  0  0
    1.7617   -3.5589   -0.4470 Br  0  0  0  0  0  0  0  0  0  0  0  0
   -0.1982   -1.4925   -0.3394 C   0  0  0  0  0  0  0  0  0  0  0  0
   -0.6763   -0.1797   -0.1414 C   0  0  0  0  0  0  0  0  0  0  0  0
   -2.1384    0.0933   -0.3911 C   0  0  0  0  0  0  0  0  0  0  0  0
   -2.6497    1.0924    0.3866 F   0  0  0  0  0  0  0  0  0  0  0  0
   -2.3962    0.4475   -1.6797 F   0  0  0  0  0  0  0  0  0  0  0  0
   -2.9280   -0.9920   -0.1427 F   0  0  0  0  0  0  0  0  0  0  0  0
   -1.1559    2.3308    0.6137 H   0  0  0  0  0  0  0  0  0  0  0  0
    0.4612    2.7792    0.8094 H   0  0  0  0  0  0  0  0  0  0  0  0
    3.1112   -1.0229    0.2720 H   0  0  0  0  0  0  0  0  0  0  0  0
   -0.8927   -2.2796   -0.6333 H   0  0  0  0  0  0  0  0  0  0  0  0
  1  2  1  0
  2  3  2  0
  3  4  1  0
  3  5  1  0
  5  6  2  0
  6  7  1  0
  6  8  1  0
  8  9  2  0
  9 10  1  0
 10 11  1  0
 10 12  1  0
 10 13  1  0
  9  2  1  0
  1 14  1  0
  1 15  1  0
  5 16  1  0
  8 17  1  0
M  END
