
     RDKit          3D

 11 11  0  0  0  0  0  0  0  0999 V2000
   -1.7438    2.4639   -0.1698 Br  0  0  0  0  0  0  0  0  0  0  0  0
   -0.6862    0.9008   -0.0640 C   0  0  0  0  0  0  0  0  0  0  0  0
   -1.2999   -0.3445   -0.0365 C   0  0  0  0  0  0  0  0  0  0  0  0
   -0.4841   -1.4574    0.0413 C   0  0  0  0  0  0  0  0  0  0  0  0
    0.8631   -1.3955    0.0913 N   0  0  0  0  0  0  0  0  0  0  0  0
    1.4254   -0.1668    0.0625 C   0  0  0  0  0  0  0  0  0  0  0  0
    3.3181   -0.0665    0.1321 Br  0  0  0  0  0  0  0  0  0  0  0  0
    0.6977    1.0074   -0.0144 C   0  0  0  0  0  0  0  0  0  0  0  0
   -2.3778   -0.4538   -0.0740 H   0  0  0  0  0  0  0  0  0  0  0  0
   -0.9029   -2.4598    0.0664 H   0  0  0  0  0  0  0  0  0  0  0  0
    1.1905    1.9723   -0.0350 H   0  0  0  0  0  0  0  0  0  0  0  0
  1  2  1  0
  2  3  2  0
  3  4  1  0
  4  5  2  0
  5  6  1  0
  6  7  1  0
  6  8  2  0
  8  2  1  0
  3  9  1  0
  4 10  1  0
  8 11  1  0
M  END
