
     RDKit          3D

 13 13  0  0  0  0  0  0  0  0999 V2000
    2.8635    0.8405   -0.2580 O   0  0  0  0  0  0  0  0  0  0  0  0
    2.1357    0.1490    0.4417 C   0  0  0  0  0  0  0  0  0  0  0  0
    0.7003   -0.0256    0.1617 C   0  0  0  0  0  0  0  0  0  0  0  0
   -0.1199    1.0243   -0.2658 C   0  0  0  0  0  0  0  0  0  0  0  0
    0.4753    2.8191   -0.4594 Br  0  0  0  0  0  0  0  0  0  0  0  0
   -1.4727    0.7943   -0.5205 C   0  0  0  0  0  0  0  0  0  0  0  0
   -1.9671   -0.4796   -0.3293 C   0  0  0  0  0  0  0  0  0  0  0  0
   -1.2105   -1.5103    0.0927 N   0  0  0  0  0  0  0  0  0  0  0  0
    0.1055   -1.2735    0.3273 C   0  0  0  0  0  0  0  0  0  0  0  0
    1.0918   -2.8160    0.8657 Br  0  0  0  0  0  0  0  0  0  0  0  0
    2.5465   -0.3989    1.3054 H   0  0  0  0  0  0  0  0  0  0  0  0
   -2.1348    1.5885   -0.8509 H   0  0  0  0  0  0  0  0  0  0  0  0
   -3.0135   -0.7117   -0.5107 H   0  0  0  0  0  0  0  0  0  0  0  0
  1  2  2  0
  2  3  1  0
  3  4  2  0
  4  5  1  0
  4  6  1  0
  6  7  2  0
  7  8  1  0
  8  9  2  0
  9 10  1  0
  9  3  1  0
  2 11  1  0
  6 12  1  0
  7 13  1  0
M  END
