
     RDKit          3D

 15 15  0  0  0  0  0  0  0  0999 V2000
    2.5010   -0.4108    0.0892 C   0  0  0  0  0  0  0  0  0  0  0  0
    1.0170   -0.1985    0.0441 C   0  0  0  0  0  0  0  0  0  0  0  0
    0.5003    1.0540   -0.2642 C   0  0  0  0  0  0  0  0  0  0  0  0
   -0.8831    1.2149   -0.2970 C   0  0  0  0  0  0  0  0  0  0  0  0
   -1.5797    2.9279   -0.7187 Br  0  0  0  0  0  0  0  0  0  0  0  0
   -1.7174    0.1360   -0.0250 C   0  0  0  0  0  0  0  0  0  0  0  0
   -3.0763    0.2948   -0.0575 O   0  0  0  0  0  0  0  0  0  0  0  0
   -1.1107   -1.0798    0.2737 C   0  0  0  0  0  0  0  0  0  0  0  0
   -2.1899   -2.5996    0.6564 Br  0  0  0  0  0  0  0  0  0  0  0  0
    0.2293   -1.2644    0.3127 N   0  0  0  0  0  0  0  0  0  0  0  0
    2.7385   -1.4483    0.3455 H   0  0  0  0  0  0  0  0  0  0  0  0
    2.9529    0.2391    0.8449 H   0  0  0  0  0  0  0  0  0  0  0  0
    2.9441   -0.1907   -0.8870 H   0  0  0  0  0  0  0  0  0  0  0  0
    1.1649    1.8863   -0.4741 H   0  0  0  0  0  0  0  0  0  0  0  0
   -3.4909   -0.5609    0.1570 H   0  0  0  0  0  0  0  0  0  0  0  0
  1  2  1  0
  2  3  2  0
  3  4  1  0
  4  5  1  0
  4  6  2  0
  6  7  1  0
  6  8  1  0
  8  9  1  0
  8 10  2  0
 10  2  1  0
  1 11  1  0
  1 12  1  0
  1 13  1  0
  3 14  1  0
  7 15  1  0
M  END
