
     RDKit          3D

 18 18  0  0  0  0  0  0  0  0999 V2000
   -0.3002   -1.6023   -1.1943 N   0  0  0  0  0  0  0  0  0  0  0  0
   -0.5409   -0.5729   -0.2629 C   0  0  0  0  0  0  0  0  0  0  0  0
   -1.8018    0.0499   -0.1783 C   0  0  0  0  0  0  0  0  0  0  0  0
   -3.2704   -0.5749   -1.2143 Br  0  0  0  0  0  0  0  0  0  0  0  0
   -2.0282    1.1218    0.6898 C   0  0  0  0  0  0  0  0  0  0  0  0
   -0.9805    1.6043    1.4673 C   0  0  0  0  0  0  0  0  0  0  0  0
   -1.2803    3.0421    2.6569 Br  0  0  0  0  0  0  0  0  0  0  0  0
    0.2903    1.0467    1.3647 C   0  0  0  0  0  0  0  0  0  0  0  0
    0.5172   -0.0046    0.4714 C   0  0  0  0  0  0  0  0  0  0  0  0
    1.8065   -0.4694    0.4304 O   0  0  0  0  0  0  0  0  0  0  0  0
    2.3452   -0.5088   -0.8845 C   0  0  0  0  0  0  0  0  0  0  0  0
    3.6257   -0.0616   -0.8012 F   0  0  0  0  0  0  0  0  0  0  0  0
    2.4213   -1.8127   -1.2586 F   0  0  0  0  0  0  0  0  0  0  0  0
    0.4321   -2.2531   -0.9062 H   0  0  0  0  0  0  0  0  0  0  0  0
   -1.1506   -2.0964   -1.4617 H   0  0  0  0  0  0  0  0  0  0  0  0
   -3.0145    1.5732    0.7594 H   0  0  0  0  0  0  0  0  0  0  0  0
    1.1139    1.4333    1.9603 H   0  0  0  0  0  0  0  0  0  0  0  0
    1.8151    0.0854   -1.6381 H   0  0  0  0  0  0  0  0  0  0  0  0
  1  2  1  0
  2  3  2  0
  3  4  1  0
  3  5  1  0
  5  6  2  0
  6  7  1  0
  6  8  1  0
  8  9  2  0
  9 10  1  0
 10 11  1  0
 11 12  1  0
 11 13  1  0
  9  2  1  0
  1 14  1  0
  1 15  1  0
  5 16  1  0
  8 17  1  0
 11 18  1  0
M  END
