
     RDKit          3D

 16 16  0  0  0  0  0  0  0  0999 V2000
    2.6180   -0.5209    0.7565 N   0  0  0  0  0  0  0  0  0  0  0  0
    1.9715    0.2304   -0.1857 C   0  0  0  0  0  0  0  0  0  0  0  0
    2.5806    0.9076   -0.9993 O   0  0  0  0  0  0  0  0  0  0  0  0
    0.4943    0.1537   -0.1672 C   0  0  0  0  0  0  0  0  0  0  0  0
   -0.0970   -1.1184   -0.2334 C   0  0  0  0  0  0  0  0  0  0  0  0
   -1.4871   -1.2467   -0.2454 C   0  0  0  0  0  0  0  0  0  0  0  0
   -2.2842   -0.1049   -0.1929 C   0  0  0  0  0  0  0  0  0  0  0  0
   -4.1666   -0.2781   -0.2080 Br  0  0  0  0  0  0  0  0  0  0  0  0
   -1.7074    1.1634   -0.1269 C   0  0  0  0  0  0  0  0  0  0  0  0
   -0.3137    1.2966   -0.1151 C   0  0  0  0  0  0  0  0  0  0  0  0
    0.3863    3.0546    0.0410 Br  0  0  0  0  0  0  0  0  0  0  0  0
    2.1385   -0.9368    1.5428 H   0  0  0  0  0  0  0  0  0  0  0  0
    3.6213   -0.4005    0.8200 H   0  0  0  0  0  0  0  0  0  0  0  0
    0.5226   -2.0104   -0.3002 H   0  0  0  0  0  0  0  0  0  0  0  0
   -1.9360   -2.2355   -0.3051 H   0  0  0  0  0  0  0  0  0  0  0  0
   -2.3413    2.0460   -0.0813 H   0  0  0  0  0  0  0  0  0  0  0  0
  1  2  1  0
  2  3  2  0
  2  4  1  0
  4  5  2  0
  5  6  1  0
  6  7  2  0
  7  8  1  0
  7  9  1  0
  9 10  2  0
 10 11  1  0
 10  4  1  0
  1 12  1  0
  1 13  1  0
  5 14  1  0
  6 15  1  0
  9 16  1  0
M  END
