
     RDKit          3D

 14 14  0  0  0  0  0  0  0  0999 V2000
   -2.3723   -0.0980    0.1180 N   0  0  0  0  0  0  0  0  0  0  0  0
   -0.9634   -0.0351    0.1128 C   0  0  0  0  0  0  0  0  0  0  0  0
   -0.2281   -1.2135    0.3018 C   0  0  0  0  0  0  0  0  0  0  0  0
   -0.8711   -2.3457    0.6285 F   0  0  0  0  0  0  0  0  0  0  0  0
    1.1546   -1.2467    0.1813 C   0  0  0  0  0  0  0  0  0  0  0  0
    1.8409   -0.0850   -0.1712 C   0  0  0  0  0  0  0  0  0  0  0  0
    3.7339   -0.2239   -0.3097 Br  0  0  0  0  0  0  0  0  0  0  0  0
    1.1406    1.1095   -0.4132 C   0  0  0  0  0  0  0  0  0  0  0  0
    2.0037    2.5478   -0.8678 Cl  0  0  0  0  0  0  0  0  0  0  0  0
   -0.2647    1.1230   -0.2866 C   0  0  0  0  0  0  0  0  0  0  0  0
   -1.2764    2.7155   -0.6208 Br  0  0  0  0  0  0  0  0  0  0  0  0
   -2.7449   -0.8596    0.6815 H   0  0  0  0  0  0  0  0  0  0  0  0
   -2.8273    0.7956    0.2885 H   0  0  0  0  0  0  0  0  0  0  0  0
    1.6746   -2.1839    0.3571 H   0  0  0  0  0  0  0  0  0  0  0  0
  1  2  1  0
  2  3  2  0
  3  4  1  0
  3  5  1  0
  5  6  2  0
  6  7  1  0
  6  8  1  0
  8  9  1  0
  8 10  2  0
 10 11  1  0
 10  2  1  0
  1 12  1  0
  1 13  1  0
  5 14  1  0
M  END
