
     RDKit          3D

 14 14  0  0  0  0  0  0  0  0999 V2000
   -2.2901   -0.5818    0.1401 N   0  0  0  0  0  0  0  0  0  0  0  0
   -0.9313   -0.2404   -0.0070 C   0  0  0  0  0  0  0  0  0  0  0  0
    0.0431   -1.2527    0.0167 C   0  0  0  0  0  0  0  0  0  0  0  0
   -0.3455   -2.5376    0.0317 F   0  0  0  0  0  0  0  0  0  0  0  0
    1.4065   -0.9716    0.0058 C   0  0  0  0  0  0  0  0  0  0  0  0
    1.8224    0.3557    0.0054 C   0  0  0  0  0  0  0  0  0  0  0  0
    3.6733    0.7445   -0.0095 Br  0  0  0  0  0  0  0  0  0  0  0  0
    0.8811    1.3845    0.0257 C   0  0  0  0  0  0  0  0  0  0  0  0
    1.2927    2.6628    0.0397 F   0  0  0  0  0  0  0  0  0  0  0  0
   -0.4867    1.0913    0.0375 C   0  0  0  0  0  0  0  0  0  0  0  0
   -1.7340    2.5266    0.0863 Br  0  0  0  0  0  0  0  0  0  0  0  0
   -2.9362    0.1299   -0.1921 H   0  0  0  0  0  0  0  0  0  0  0  0
   -2.5131   -1.5197   -0.1872 H   0  0  0  0  0  0  0  0  0  0  0  0
    2.1177   -1.7916    0.0067 H   0  0  0  0  0  0  0  0  0  0  0  0
  1  2  1  0
  2  3  2  0
  3  4  1  0
  3  5  1  0
  5  6  2  0
  6  7  1  0
  6  8  1  0
  8  9  1  0
  8 10  2  0
 10 11  1  0
 10  2  1  0
  1 12  1  0
  1 13  1  0
  5 14  1  0
M  END
