
     RDKit          3D

 15 15  0  0  0  0  0  0  0  0999 V2000
   -2.8099   -0.5797    0.9021 O   0  0  0  0  0  0  0  0  0  0  0  0
   -2.1981    0.3621    0.4021 C   0  0  0  0  0  0  0  0  0  0  0  0
   -0.7684    0.2267    0.0480 C   0  0  0  0  0  0  0  0  0  0  0  0
   -0.1130   -0.9931    0.2892 C   0  0  0  0  0  0  0  0  0  0  0  0
   -0.7323   -2.0835    0.8431 O   0  0  0  0  0  0  0  0  0  0  0  0
    1.2333   -1.1619   -0.0299 C   0  0  0  0  0  0  0  0  0  0  0  0
    1.9393   -0.1063   -0.5960 C   0  0  0  0  0  0  0  0  0  0  0  0
    3.7653   -0.3248   -1.0324 Br  0  0  0  0  0  0  0  0  0  0  0  0
    1.3109    1.1131   -0.8446 C   0  0  0  0  0  0  0  0  0  0  0  0
   -0.0429    1.2823   -0.5236 C   0  0  0  0  0  0  0  0  0  0  0  0
   -0.7961    2.9852   -0.9058 Br  0  0  0  0  0  0  0  0  0  0  0  0
   -2.7079    1.3177    0.2121 H   0  0  0  0  0  0  0  0  0  0  0  0
   -1.6720   -1.8515    1.0260 H   0  0  0  0  0  0  0  0  0  0  0  0
    1.7152   -2.1162    0.1675 H   0  0  0  0  0  0  0  0  0  0  0  0
    1.8766    1.9299   -1.2882 H   0  0  0  0  0  0  0  0  0  0  0  0
  1  2  2  0
  2  3  1  0
  3  4  2  0
  4  5  1  0
  4  6  1  0
  6  7  2  0
  7  8  1  0
  7  9  1  0
  9 10  2  0
 10 11  1  0
 10  3  1  0
  2 12  1  0
  5 13  1  0
  6 14  1  0
  9 15  1  0
M  END
