
     RDKit          3D

 18 18  0  0  0  0  0  0  0  0999 V2000
    2.7125    0.0724    0.0474 C   0  0  0  0  0  0  0  0  0  0  0  0
    1.2233    0.2935    0.0722 C   0  0  0  0  0  0  0  0  0  0  0  0
    0.7463    1.5880    0.3075 C   0  0  0  0  0  0  0  0  0  0  0  0
   -0.6213    1.8436    0.3348 C   0  0  0  0  0  0  0  0  0  0  0  0
   -1.5401    0.8099    0.1309 C   0  0  0  0  0  0  0  0  0  0  0  0
   -3.3761    1.3100    0.1844 Br  0  0  0  0  0  0  0  0  0  0  0  0
   -1.1055   -0.5085   -0.1016 C   0  0  0  0  0  0  0  0  0  0  0  0
   -2.0736   -1.6433   -0.3273 C   0  0  0  0  0  0  0  0  0  0  0  0
    0.2924   -0.7483   -0.1340 C   0  0  0  0  0  0  0  0  0  0  0  0
    0.9496   -2.5179   -0.4712 Br  0  0  0  0  0  0  0  0  0  0  0  0
    3.0299   -0.2947   -0.9338 H   0  0  0  0  0  0  0  0  0  0  0  0
    3.2595    1.0028    0.2362 H   0  0  0  0  0  0  0  0  0  0  0  0
    3.0086   -0.6382    0.8256 H   0  0  0  0  0  0  0  0  0  0  0  0
    1.4383    2.4123    0.4693 H   0  0  0  0  0  0  0  0  0  0  0  0
   -0.9631    2.8606    0.5158 H   0  0  0  0  0  0  0  0  0  0  0  0
   -1.8951   -2.4451    0.3971 H   0  0  0  0  0  0  0  0  0  0  0  0
   -1.9642   -2.0341   -1.3445 H   0  0  0  0  0  0  0  0  0  0  0  0
   -3.1215   -1.3631   -0.2087 H   0  0  0  0  0  0  0  0  0  0  0  0
  1  2  1  0
  2  3  2  0
  3  4  1  0
  4  5  2  0
  5  6  1  0
  5  7  1  0
  7  8  1  0
  7  9  2  0
  9 10  1  0
  9  2  1  0
  1 11  1  0
  1 12  1  0
  1 13  1  0
  3 14  1  0
  4 15  1  0
  8 16  1  0
  8 17  1  0
  8 18  1  0
M  END
