
     RDKit          3D

 11 11  0  0  0  0  0  0  0  0999 V2000
   -2.6173   -0.4146   -0.0573 F   0  0  0  0  0  0  0  0  0  0  0  0
   -1.2822   -0.3089   -0.0306 C   0  0  0  0  0  0  0  0  0  0  0  0
   -0.4976   -1.4453   -0.0431 C   0  0  0  0  0  0  0  0  0  0  0  0
    0.8557   -1.4221   -0.0180 N   0  0  0  0  0  0  0  0  0  0  0  0
    1.4466   -0.2058    0.0214 C   0  0  0  0  0  0  0  0  0  0  0  0
    3.3415   -0.1515    0.0571 Br  0  0  0  0  0  0  0  0  0  0  0  0
    0.7434    0.9891    0.0368 C   0  0  0  0  0  0  0  0  0  0  0  0
   -0.6468    0.9240    0.0100 C   0  0  0  0  0  0  0  0  0  0  0  0
   -1.6528    2.5246    0.0295 Br  0  0  0  0  0  0  0  0  0  0  0  0
   -0.9514   -2.4308   -0.0745 H   0  0  0  0  0  0  0  0  0  0  0  0
    1.2611    1.9413    0.0686 H   0  0  0  0  0  0  0  0  0  0  0  0
  1  2  1  0
  2  3  2  0
  3  4  1  0
  4  5  2  0
  5  6  1  0
  5  7  1  0
  7  8  2  0
  8  9  1  0
  8  2  1  0
  3 10  1  0
  7 11  1  0
M  END
