
     RDKit          3D

 14 14  0  0  0  0  0  0  0  0999 V2000
    3.9578   -0.2698    1.5948 S   0  0  0  0  0  0  0  0  0  0  0  0
    2.8742   -0.2938    0.1577 C   0  0  0  0  0  0  0  0  0  0  0  0
    2.1720   -0.3172   -0.7845 N   0  0  0  0  0  0  0  0  0  0  0  0
    0.8163   -0.1378   -0.4411 C   0  0  0  0  0  0  0  0  0  0  0  0
    0.0207   -1.2728   -0.2140 C   0  0  0  0  0  0  0  0  0  0  0  0
   -1.3348   -1.1490    0.1018 C   0  0  0  0  0  0  0  0  0  0  0  0
   -1.9126    0.1159    0.1784 C   0  0  0  0  0  0  0  0  0  0  0  0
   -3.7464    0.2830    0.6045 Br  0  0  0  0  0  0  0  0  0  0  0  0
   -1.1529    1.2579   -0.0644 C   0  0  0  0  0  0  0  0  0  0  0  0
    0.2035    1.1296   -0.3806 C   0  0  0  0  0  0  0  0  0  0  0  0
    1.1830    2.7209   -0.7298 Br  0  0  0  0  0  0  0  0  0  0  0  0
    0.4614   -2.2651   -0.2876 H   0  0  0  0  0  0  0  0  0  0  0  0
   -1.9281   -2.0430    0.2790 H   0  0  0  0  0  0  0  0  0  0  0  0
   -1.6140    2.2411   -0.0141 H   0  0  0  0  0  0  0  0  0  0  0  0
  1  2  2  0
  2  3  2  0
  3  4  1  0
  4  5  2  0
  5  6  1  0
  6  7  2  0
  7  8  1  0
  7  9  1  0
  9 10  2  0
 10 11  1  0
 10  4  1  0
  5 12  1  0
  6 13  1  0
  9 14  1  0
M  END
