
     RDKit          3D

 12 12  0  0  0  0  0  0  0  0999 V2000
   -2.4243   -1.3175   -0.0205 F   0  0  0  0  0  0  0  0  0  0  0  0
   -1.2402   -0.6892   -0.0109 C   0  0  0  0  0  0  0  0  0  0  0  0
   -0.0820   -1.4584   -0.0385 C   0  0  0  0  0  0  0  0  0  0  0  0
    1.1551   -0.8234   -0.0290 C   0  0  0  0  0  0  0  0  0  0  0  0
    2.2613   -1.5802   -0.0559 F   0  0  0  0  0  0  0  0  0  0  0  0
    1.2441    0.5671    0.0076 C   0  0  0  0  0  0  0  0  0  0  0  0
    2.9353    1.4137    0.0200 Br  0  0  0  0  0  0  0  0  0  0  0  0
    0.0746    1.3267    0.0350 C   0  0  0  0  0  0  0  0  0  0  0  0
    0.1500    2.6669    0.0704 F   0  0  0  0  0  0  0  0  0  0  0  0
   -1.1726    0.7026    0.0259 C   0  0  0  0  0  0  0  0  0  0  0  0
   -2.7583    1.7328    0.0629 Br  0  0  0  0  0  0  0  0  0  0  0  0
   -0.1430   -2.5412   -0.0671 H   0  0  0  0  0  0  0  0  0  0  0  0
  1  2  1  0
  2  3  2  0
  3  4  1  0
  4  5  1  0
  4  6  2  0
  6  7  1  0
  6  8  1  0
  8  9  1  0
  8 10  2  0
 10 11  1  0
 10  2  1  0
  3 12  1  0
M  END
