
     RDKit          3D

 13 13  0  0  0  0  0  0  0  0999 V2000
    3.6043   -0.8509   -0.0495 N   0  0  0  0  0  0  0  0  0  0  0  0
    2.4796   -0.5650   -0.0331 C   0  0  0  0  0  0  0  0  0  0  0  0
    1.0805   -0.2495   -0.0146 C   0  0  0  0  0  0  0  0  0  0  0  0
    0.1553   -1.3035   -0.0637 C   0  0  0  0  0  0  0  0  0  0  0  0
   -1.2172   -1.0427   -0.0479 C   0  0  0  0  0  0  0  0  0  0  0  0
   -1.6683    0.2737    0.0171 C   0  0  0  0  0  0  0  0  0  0  0  0
   -3.5248    0.6270    0.0385 Br  0  0  0  0  0  0  0  0  0  0  0  0
   -0.7624    1.3320    0.0664 C   0  0  0  0  0  0  0  0  0  0  0  0
    0.6122    1.0697    0.0506 C   0  0  0  0  0  0  0  0  0  0  0  0
    1.7894    2.5598    0.1203 Br  0  0  0  0  0  0  0  0  0  0  0  0
    0.4988   -2.3363   -0.1146 H   0  0  0  0  0  0  0  0  0  0  0  0
   -1.9222   -1.8703   -0.0865 H   0  0  0  0  0  0  0  0  0  0  0  0
   -1.1251    2.3561    0.1170 H   0  0  0  0  0  0  0  0  0  0  0  0
  1  2  3  0
  2  3  1  0
  3  4  2  0
  4  5  1  0
  5  6  2  0
  6  7  1  0
  6  8  1  0
  8  9  2  0
  9 10  1  0
  9  3  1  0
  4 11  1  0
  5 12  1  0
  8 13  1  0
M  END
