
     RDKit          3D

  9  9  0  0  0  0  0  0  0  0999 V2000
   -2.3436    1.5989   -0.0253 Br  0  0  0  0  0  0  0  0  0  0  0  0
   -0.9021    0.3833   -0.0097 C   0  0  0  0  0  0  0  0  0  0  0  0
   -1.0344   -0.9846   -0.0107 C   0  0  0  0  0  0  0  0  0  0  0  0
    0.5001   -1.7529    0.0058 S   0  0  0  0  0  0  0  0  0  0  0  0
    1.2993   -0.2554    0.0138 C   0  0  0  0  0  0  0  0  0  0  0  0
    3.2036   -0.0906    0.0340 Br  0  0  0  0  0  0  0  0  0  0  0  0
    0.4468    0.8209    0.0045 C   0  0  0  0  0  0  0  0  0  0  0  0
   -1.9413   -1.5733   -0.0201 H   0  0  0  0  0  0  0  0  0  0  0  0
    0.7716    1.8538    0.0077 H   0  0  0  0  0  0  0  0  0  0  0  0
  1  2  1  0
  2  3  2  0
  3  4  1  0
  4  5  1  0
  5  6  1  0
  5  7  2  0
  7  2  1  0
  3  8  1  0
  7  9  1  0
M  END
