
     RDKit          3D

 18 18  0  0  0  0  0  0  0  0999 V2000
    2.7523   -0.9626   -0.4604 C   0  0  0  0  0  0  0  0  0  0  0  0
    2.1646    0.3279   -0.5549 O   0  0  0  0  0  0  0  0  0  0  0  0
    0.8316    0.4476   -0.2611 C   0  0  0  0  0  0  0  0  0  0  0  0
   -0.0020   -0.6222    0.0922 C   0  0  0  0  0  0  0  0  0  0  0  0
   -1.3675   -0.4286    0.3531 C   0  0  0  0  0  0  0  0  0  0  0  0
   -2.1297   -1.5143    0.8198 N   0  0  0  0  0  0  0  0  0  0  0  0
   -1.8711    0.8822    0.3432 C   0  0  0  0  0  0  0  0  0  0  0  0
   -3.6890    1.2342    0.7730 Br  0  0  0  0  0  0  0  0  0  0  0  0
   -1.0589    1.9597   -0.0082 C   0  0  0  0  0  0  0  0  0  0  0  0
    0.2845    1.7384   -0.3162 C   0  0  0  0  0  0  0  0  0  0  0  0
    1.3406    3.2471   -0.7900 Br  0  0  0  0  0  0  0  0  0  0  0  0
    3.8123   -0.8664   -0.7145 H   0  0  0  0  0  0  0  0  0  0  0  0
    2.3001   -1.6553   -1.1778 H   0  0  0  0  0  0  0  0  0  0  0  0
    2.6893   -1.3515    0.5612 H   0  0  0  0  0  0  0  0  0  0  0  0
    0.3919   -1.6297    0.1759 H   0  0  0  0  0  0  0  0  0  0  0  0
   -3.1327   -1.3553    0.7465 H   0  0  0  0  0  0  0  0  0  0  0  0
   -1.8494   -2.4178    0.4527 H   0  0  0  0  0  0  0  0  0  0  0  0
   -1.4668    2.9665   -0.0343 H   0  0  0  0  0  0  0  0  0  0  0  0
  1  2  1  0
  2  3  1  0
  3  4  2  0
  4  5  1  0
  5  6  1  0
  5  7  2  0
  7  8  1  0
  7  9  1  0
  9 10  2  0
 10 11  1  0
 10  3  1  0
  1 12  1  0
  1 13  1  0
  1 14  1  0
  4 15  1  0
  6 16  1  0
  6 17  1  0
  9 18  1  0
M  END
