
     RDKit          3D

 19 19  0  0  0  0  0  0  0  0999 V2000
   -2.7051   -1.2627   -0.6243 C   0  0  0  0  0  0  0  0  0  0  0  0
   -2.4011    0.0688   -0.2319 O   0  0  0  0  0  0  0  0  0  0  0  0
   -1.0879    0.3876   -0.0085 C   0  0  0  0  0  0  0  0  0  0  0  0
   -0.0202   -0.5093   -0.1401 C   0  0  0  0  0  0  0  0  0  0  0  0
    1.3080   -0.1096    0.1068 C   0  0  0  0  0  0  0  0  0  0  0  0
    2.4153   -1.1156   -0.0502 C   0  0  0  0  0  0  0  0  0  0  0  0
    1.5519    1.2168    0.4916 C   0  0  0  0  0  0  0  0  0  0  0  0
    3.3054    1.8547    0.8473 Br  0  0  0  0  0  0  0  0  0  0  0  0
    0.4978    2.1212    0.6266 C   0  0  0  0  0  0  0  0  0  0  0  0
   -0.8124    1.7069    0.3776 C   0  0  0  0  0  0  0  0  0  0  0  0
   -2.1980    2.9935    0.5816 Br  0  0  0  0  0  0  0  0  0  0  0  0
   -2.4181   -1.9786    0.1529 H   0  0  0  0  0  0  0  0  0  0  0  0
   -3.7891   -1.3329   -0.7564 H   0  0  0  0  0  0  0  0  0  0  0  0
   -2.2369   -1.5083   -1.5831 H   0  0  0  0  0  0  0  0  0  0  0  0
   -0.1966   -1.5390   -0.4374 H   0  0  0  0  0  0  0  0  0  0  0  0
    2.0292   -2.0942   -0.3556 H   0  0  0  0  0  0  0  0  0  0  0  0
    2.9420   -1.2565    0.8990 H   0  0  0  0  0  0  0  0  0  0  0  0
    3.1214   -0.7905   -0.8210 H   0  0  0  0  0  0  0  0  0  0  0  0
    0.6944    3.1479    0.9252 H   0  0  0  0  0  0  0  0  0  0  0  0
  1  2  1  0
  2  3  1  0
  3  4  2  0
  4  5  1  0
  5  6  1  0
  5  7  2  0
  7  8  1  0
  7  9  1  0
  9 10  2  0
 10 11  1  0
 10  3  1  0
  1 12  1  0
  1 13  1  0
  1 14  1  0
  4 15  1  0
  6 16  1  0
  6 17  1  0
  6 18  1  0
  9 19  1  0
M  END
