
     RDKit          3D

 19 19  0  0  0  0  0  0  0  0999 V2000
   -2.4340   -0.9300   -0.3038 C   0  0  0  0  0  0  0  0  0  0  0  0
   -0.9864   -0.5288   -0.1816 C   0  0  0  0  0  0  0  0  0  0  0  0
    0.0038   -1.4956   -0.4340 C   0  0  0  0  0  0  0  0  0  0  0  0
    1.3575   -1.1873   -0.2973 C   0  0  0  0  0  0  0  0  0  0  0  0
    2.6107   -2.5659   -0.6644 Br  0  0  0  0  0  0  0  0  0  0  0  0
    1.7175    0.0977    0.1062 C   0  0  0  0  0  0  0  0  0  0  0  0
    3.1119    0.4146    0.2634 N   0  0  0  0  0  4  0  0  0  0  0  0
    3.6147    0.2015    1.3741 O   0  0  0  0  0  0  0  0  0  0  0  0
    3.6963    0.8722   -0.7275 O   0  0  0  0  0  1  0  0  0  0  0  0
    0.7558    1.0831    0.3603 C   0  0  0  0  0  0  0  0  0  0  0  0
    1.2479    2.8442    0.9261 Br  0  0  0  0  0  0  0  0  0  0  0  0
   -0.6135    0.7869    0.1733 C   0  0  0  0  0  0  0  0  0  0  0  0
   -1.6056    1.7176    0.5383 N   0  0  0  0  0  0  0  0  0  0  0  0
   -2.9153   -0.3668   -1.1097 H   0  0  0  0  0  0  0  0  0  0  0  0
   -2.5396   -1.9953   -0.5355 H   0  0  0  0  0  0  0  0  0  0  0  0
   -2.9613   -0.7476    0.6381 H   0  0  0  0  0  0  0  0  0  0  0  0
   -0.2927   -2.5021   -0.7278 H   0  0  0  0  0  0  0  0  0  0  0  0
   -2.4915    1.6201    0.0534 H   0  0  0  0  0  0  0  0  0  0  0  0
   -1.2762    2.6813    0.5483 H   0  0  0  0  0  0  0  0  0  0  0  0
  1  2  1  0
  2  3  2  0
  3  4  1  0
  4  5  1  0
  4  6  2  0
  6  7  1  0
  7  8  2  0
  7  9  1  0
  6 10  1  0
 10 11  1  0
 10 12  2  0
 12 13  1  0
 12  2  1  0
  1 14  1  0
  1 15  1  0
  1 16  1  0
  3 17  1  0
 13 18  1  0
 13 19  1  0
M  CHG  2   7   1   9  -1
M  END
