
     RDKit          3D

 18 18  0  0  0  0  0  0  0  0999 V2000
   -2.4651    1.1176   -0.1978 C   0  0  0  0  0  0  0  0  0  0  0  0
   -1.2287    0.2653   -0.0886 C   0  0  0  0  0  0  0  0  0  0  0  0
   -1.3806   -1.1250   -0.0398 C   0  0  0  0  0  0  0  0  0  0  0  0
   -0.2684   -1.9547    0.0663 C   0  0  0  0  0  0  0  0  0  0  0  0
    1.0186   -1.4116    0.1223 C   0  0  0  0  0  0  0  0  0  0  0  0
    2.4417   -2.6662    0.2785 Br  0  0  0  0  0  0  0  0  0  0  0  0
    1.2189   -0.0195    0.0686 C   0  0  0  0  0  0  0  0  0  0  0  0
    2.5955    0.5948    0.1295 C   0  0  0  0  0  0  0  0  0  0  0  0
    0.0728    0.8106   -0.0312 C   0  0  0  0  0  0  0  0  0  0  0  0
    0.2764    2.7167   -0.0830 Br  0  0  0  0  0  0  0  0  0  0  0  0
   -2.4409    1.7142   -1.1153 H   0  0  0  0  0  0  0  0  0  0  0  0
   -3.3727    0.5050   -0.2363 H   0  0  0  0  0  0  0  0  0  0  0  0
   -2.5567    1.7749    0.6727 H   0  0  0  0  0  0  0  0  0  0  0  0
   -2.3704   -1.5757   -0.0811 H   0  0  0  0  0  0  0  0  0  0  0  0
   -0.4172   -3.0317    0.1064 H   0  0  0  0  0  0  0  0  0  0  0  0
    2.7672    1.2306   -0.7457 H   0  0  0  0  0  0  0  0  0  0  0  0
    3.4074   -0.1342    0.1312 H   0  0  0  0  0  0  0  0  0  0  0  0
    2.7021    1.1888    1.0434 H   0  0  0  0  0  0  0  0  0  0  0  0
  1  2  1  0
  2  3  2  0
  3  4  1  0
  4  5  2  0
  5  6  1  0
  5  7  1  0
  7  8  1  0
  7  9  2  0
  9 10  1  0
  9  2  1  0
  1 11  1  0
  1 12  1  0
  1 13  1  0
  3 14  1  0
  4 15  1  0
  8 16  1  0
  8 17  1  0
  8 18  1  0
M  END
