
     RDKit          3D

 16 17  0  0  0  0  0  0  0  0999 V2000
    3.9289   -1.5725   -0.5131 Br  0  0  0  0  0  0  0  0  0  0  0  0
    2.2466   -0.7200   -0.3184 C   0  0  0  0  0  0  0  0  0  0  0  0
    2.1880    0.6560   -0.3613 C   0  0  0  0  0  0  0  0  0  0  0  0
    0.9400    1.2534   -0.2155 C   0  0  0  0  0  0  0  0  0  0  0  0
    0.8909    3.1557   -0.2792 Br  0  0  0  0  0  0  0  0  0  0  0  0
   -0.2240    0.4737   -0.0302 C   0  0  0  0  0  0  0  0  0  0  0  0
   -1.5338    0.9867    0.1270 C   0  0  0  0  0  0  0  0  0  0  0  0
   -2.5914    0.1107    0.3016 C   0  0  0  0  0  0  0  0  0  0  0  0
   -2.4434   -1.2235    0.3310 N   0  0  0  0  0  0  0  0  0  0  0  0
   -1.1771   -1.6906    0.1779 C   0  0  0  0  0  0  0  0  0  0  0  0
   -0.0385   -0.9200   -0.0037 C   0  0  0  0  0  0  0  0  0  0  0  0
    1.1668   -1.5067   -0.1441 N   0  0  0  0  0  0  0  0  0  0  0  0
    3.0853    1.2478   -0.5038 H   0  0  0  0  0  0  0  0  0  0  0  0
   -1.7394    2.0518    0.1153 H   0  0  0  0  0  0  0  0  0  0  0  0
   -3.6085    0.4722    0.4250 H   0  0  0  0  0  0  0  0  0  0  0  0
   -1.0906   -2.7745    0.2063 H   0  0  0  0  0  0  0  0  0  0  0  0
  1  2  1  0
  2  3  2  0
  3  4  1  0
  4  5  1  0
  4  6  2  0
  6  7  1  0
  7  8  2  0
  8  9  1  0
  9 10  2  0
 10 11  1  0
 11 12  2  0
 12  2  1  0
 11  6  1  0
  3 13  1  0
  7 14  1  0
  8 15  1  0
 10 16  1  0
M  END
