
     RDKit          3D

 17 17  0  0  0  0  0  0  0  0999 V2000
    2.4747   -0.4110    0.4467 C   0  0  0  0  0  0  0  0  0  0  0  0
    1.0705    0.0270    0.1358 C   0  0  0  0  0  0  0  0  0  0  0  0
    0.0233   -0.9067    0.2422 C   0  0  0  0  0  0  0  0  0  0  0  0
   -1.3084   -0.5533   -0.0121 C   0  0  0  0  0  0  0  0  0  0  0  0
   -2.2906   -1.5577   -0.0072 N   0  0  0  0  0  0  0  0  0  0  0  0
   -1.5720    0.7463   -0.4707 C   0  0  0  0  0  0  0  0  0  0  0  0
   -3.3388    1.2827   -0.9236 Br  0  0  0  0  0  0  0  0  0  0  0  0
   -0.5498    1.6902   -0.5835 C   0  0  0  0  0  0  0  0  0  0  0  0
    0.7641    1.3324   -0.2748 C   0  0  0  0  0  0  0  0  0  0  0  0
    2.1016    2.6696   -0.4535 Br  0  0  0  0  0  0  0  0  0  0  0  0
    2.8902    0.1855    1.2652 H   0  0  0  0  0  0  0  0  0  0  0  0
    2.5076   -1.4597    0.7615 H   0  0  0  0  0  0  0  0  0  0  0  0
    3.1100   -0.3165   -0.4397 H   0  0  0  0  0  0  0  0  0  0  0  0
    0.2508   -1.9328    0.5259 H   0  0  0  0  0  0  0  0  0  0  0  0
   -2.1205   -2.3081    0.6543 H   0  0  0  0  0  0  0  0  0  0  0  0
   -3.2363   -1.1866    0.0532 H   0  0  0  0  0  0  0  0  0  0  0  0
   -0.7764    2.6986   -0.9198 H   0  0  0  0  0  0  0  0  0  0  0  0
  1  2  1  0
  2  3  2  0
  3  4  1  0
  4  5  1  0
  4  6  2  0
  6  7  1  0
  6  8  1  0
  8  9  2  0
  9 10  1  0
  9  2  1  0
  1 11  1  0
  1 12  1  0
  1 13  1  0
  3 14  1  0
  5 15  1  0
  5 16  1  0
  8 17  1  0
M  END
