
     RDKit          3D

 14 14  0  0  0  0  0  0  0  0999 V2000
   -2.3331    0.0727   -0.4117 N   0  0  0  0  0  0  0  0  0  0  0  0
   -0.9554    0.0203   -0.1030 C   0  0  0  0  0  0  0  0  0  0  0  0
   -0.3119   -1.2229    0.0452 C   0  0  0  0  0  0  0  0  0  0  0  0
   -1.2234   -2.6948    0.0490 Cl  0  0  0  0  0  0  0  0  0  0  0  0
    1.0684   -1.3086    0.2178 C   0  0  0  0  0  0  0  0  0  0  0  0
    1.8439   -0.1478    0.2124 C   0  0  0  0  0  0  0  0  0  0  0  0
    3.7177   -0.3759    0.4591 Br  0  0  0  0  0  0  0  0  0  0  0  0
    1.2449    1.1076    0.0252 C   0  0  0  0  0  0  0  0  0  0  0  0
    2.2220    2.5446    0.0051 Cl  0  0  0  0  0  0  0  0  0  0  0  0
   -0.1522    1.1832   -0.1490 C   0  0  0  0  0  0  0  0  0  0  0  0
   -1.0230    2.8699   -0.4240 Br  0  0  0  0  0  0  0  0  0  0  0  0
   -2.8603   -0.7310   -0.0757 H   0  0  0  0  0  0  0  0  0  0  0  0
   -2.7729    0.9651   -0.1992 H   0  0  0  0  0  0  0  0  0  0  0  0
    1.5353   -2.2824    0.3487 H   0  0  0  0  0  0  0  0  0  0  0  0
  1  2  1  0
  2  3  2  0
  3  4  1  0
  3  5  1  0
  5  6  2  0
  6  7  1  0
  6  8  1  0
  8  9  1  0
  8 10  2  0
 10 11  1  0
 10  2  1  0
  1 12  1  0
  1 13  1  0
  5 14  1  0
M  END
