
     RDKit          3D

 16 16  0  0  0  0  0  0  0  0999 V2000
   -1.7383    2.9599   -0.1829 C   0  0  0  0  0  3  0  0  0  0  0  0
   -0.9896    2.0577   -0.1501 N   0  0  0  0  0  4  0  0  0  0  0  0
   -0.1180    0.9724   -0.1076 C   0  0  0  0  0  0  0  0  0  0  0  0
   -0.6437   -0.3146    0.1062 C   0  0  0  0  0  0  0  0  0  0  0  0
   -2.1176   -0.5424    0.2887 C   0  0  0  0  0  0  0  0  0  0  0  0
    0.2430   -1.4010    0.1473 C   0  0  0  0  0  0  0  0  0  0  0  0
    1.6144   -1.1985   -0.0213 C   0  0  0  0  0  0  0  0  0  0  0  0
    2.7906   -2.6779    0.0379 Br  0  0  0  0  0  0  0  0  0  0  0  0
    2.1267    0.0804   -0.2327 C   0  0  0  0  0  0  0  0  0  0  0  0
    1.2573    1.1719   -0.2762 C   0  0  0  0  0  0  0  0  0  0  0  0
    2.0056    2.8905   -0.5665 Br  0  0  0  0  0  0  0  0  0  0  0  0
   -2.3432   -1.6030    0.4431 H   0  0  0  0  0  0  0  0  0  0  0  0
   -2.4809    0.0029    1.1655 H   0  0  0  0  0  0  0  0  0  0  0  0
   -2.6659   -0.2149   -0.6003 H   0  0  0  0  0  0  0  0  0  0  0  0
   -0.1371   -2.4080    0.3113 H   0  0  0  0  0  0  0  0  0  0  0  0
    3.1967    0.2243   -0.3625 H   0  0  0  0  0  0  0  0  0  0  0  0
  1  2  3  0
  2  3  1  0
  3  4  2  0
  4  5  1  0
  4  6  1  0
  6  7  2  0
  7  8  1  0
  7  9  1  0
  9 10  2  0
 10 11  1  0
 10  3  1  0
  5 12  1  0
  5 13  1  0
  5 14  1  0
  6 15  1  0
  9 16  1  0
M  CHG  2   1  -1   2   1
M  END
