
     RDKit          3D

 12 12  0  0  0  0  0  0  0  0999 V2000
    3.2865    1.1370   -0.2474 N   0  0  0  0  0  0  0  0  0  0  0  0
    2.2106    0.7094   -0.1653 C   0  0  0  0  0  0  0  0  0  0  0  0
    0.8844    0.1871   -0.0643 C   0  0  0  0  0  0  0  0  0  0  0  0
   -0.2330    1.0259   -0.0032 C   0  0  0  0  0  0  0  0  0  0  0  0
   -0.0849    2.9214   -0.0490 Br  0  0  0  0  0  0  0  0  0  0  0  0
   -1.5170    0.4914    0.0951 C   0  0  0  0  0  0  0  0  0  0  0  0
   -1.6456   -0.8817    0.1297 C   0  0  0  0  0  0  0  0  0  0  0  0
   -0.5957   -1.7235    0.0733 N   0  0  0  0  0  0  0  0  0  0  0  0
    0.6459   -1.1818   -0.0223 C   0  0  0  0  0  0  0  0  0  0  0  0
    2.0681   -2.4517   -0.0962 Br  0  0  0  0  0  0  0  0  0  0  0  0
   -2.3987    1.1224    0.1439 H   0  0  0  0  0  0  0  0  0  0  0  0
   -2.6207   -1.3562    0.2057 H   0  0  0  0  0  0  0  0  0  0  0  0
  1  2  3  0
  2  3  1  0
  3  4  2  0
  4  5  1  0
  4  6  1  0
  6  7  2  0
  7  8  1  0
  8  9  2  0
  9 10  1  0
  9  3  1  0
  6 11  1  0
  7 12  1  0
M  END
