
     RDKit          3D

 14 14  0  0  0  0  0  0  0  0999 V2000
   -2.8162    1.4974   -0.5191 O   0  0  0  0  0  0  0  0  0  0  0  0
   -2.3374    0.3810   -0.3642 C   0  0  0  0  0  0  0  0  0  0  0  0
   -0.8941    0.1424   -0.1391 C   0  0  0  0  0  0  0  0  0  0  0  0
   -0.0165    1.2322   -0.0976 C   0  0  0  0  0  0  0  0  0  0  0  0
   -0.4536    2.4889   -0.2572 F   0  0  0  0  0  0  0  0  0  0  0  0
    1.3501    1.0564    0.1118 C   0  0  0  0  0  0  0  0  0  0  0  0
    1.8549   -0.2260    0.2831 C   0  0  0  0  0  0  0  0  0  0  0  0
    3.7055   -0.4769    0.5676 Br  0  0  0  0  0  0  0  0  0  0  0  0
    1.0037   -1.3286    0.2464 C   0  0  0  0  0  0  0  0  0  0  0  0
   -0.3709   -1.1472    0.0355 C   0  0  0  0  0  0  0  0  0  0  0  0
   -1.4318   -2.7247    0.0054 Br  0  0  0  0  0  0  0  0  0  0  0  0
   -3.0013   -0.4952   -0.3917 H   0  0  0  0  0  0  0  0  0  0  0  0
    1.9965    1.9291    0.1370 H   0  0  0  0  0  0  0  0  0  0  0  0
    1.4111   -2.3288    0.3820 H   0  0  0  0  0  0  0  0  0  0  0  0
  1  2  2  0
  2  3  1  0
  3  4  2  0
  4  5  1  0
  4  6  1  0
  6  7  2  0
  7  8  1  0
  7  9  1  0
  9 10  2  0
 10 11  1  0
 10  3  1  0
  2 12  1  0
  6 13  1  0
  9 14  1  0
M  END
