
     RDKit          3D

 10 10  0  0  0  0  0  0  0  0999 V2000
   -2.1483   -1.9337   -0.2811 O   0  0  0  0  0  0  0  0  0  0  0  0
   -1.8069   -0.7557   -0.1995 C   0  0  0  0  0  0  0  0  0  0  0  0
   -0.4560   -0.2796   -0.0541 C   0  0  0  0  0  0  0  0  0  0  0  0
    0.8575   -1.3835    0.0209 S   0  0  0  0  0  0  0  0  0  0  0  0
    1.9300   -0.0682    0.1760 C   0  0  0  0  0  0  0  0  0  0  0  0
    3.8245   -0.3195    0.3409 Br  0  0  0  0  0  0  0  0  0  0  0  0
    1.3964    1.1295    0.1773 N   0  0  0  0  0  0  0  0  0  0  0  0
    0.0287    1.0084    0.0454 C   0  0  0  0  0  0  0  0  0  0  0  0
   -1.0393    2.5788    0.0129 Br  0  0  0  0  0  0  0  0  0  0  0  0
   -2.5866    0.0234   -0.2388 H   0  0  0  0  0  0  0  0  0  0  0  0
  1  2  2  0
  2  3  1  0
  3  4  1  0
  4  5  1  0
  5  6  1  0
  5  7  2  0
  7  8  1  0
  8  9  1  0
  8  3  2  0
  2 10  1  0
M  END
