
     RDKit          3D

 11 11  0  0  0  0  0  0  0  0999 V2000
   -2.5088   -0.8456   -0.1280 F   0  0  0  0  0  0  0  0  0  0  0  0
   -1.2113   -0.5185   -0.0648 C   0  0  0  0  0  0  0  0  0  0  0  0
   -0.2481   -1.5081   -0.0515 C   0  0  0  0  0  0  0  0  0  0  0  0
    1.0811   -1.2593    0.0109 N   0  0  0  0  0  0  0  0  0  0  0  0
    1.4594    0.0385    0.0621 C   0  0  0  0  0  0  0  0  0  0  0  0
    3.3170    0.4082    0.1499 Br  0  0  0  0  0  0  0  0  0  0  0  0
    0.5666    1.0992    0.0537 C   0  0  0  0  0  0  0  0  0  0  0  0
   -0.7920    0.8031   -0.0112 C   0  0  0  0  0  0  0  0  0  0  0  0
   -2.0511    2.2134   -0.0255 Br  0  0  0  0  0  0  0  0  0  0  0  0
   -0.5300   -2.5555   -0.0919 H   0  0  0  0  0  0  0  0  0  0  0  0
    0.9170    2.1245    0.0963 H   0  0  0  0  0  0  0  0  0  0  0  0
  1  2  1  0
  2  3  2  0
  3  4  1  0
  4  5  2  0
  5  6  1  0
  5  7  1  0
  7  8  2  0
  8  9  1  0
  8  2  1  0
  3 10  1  0
  7 11  1  0
M  END
