
     RDKit          3D

 17 17  0  0  0  0  0  0  0  0999 V2000
   -1.4000    1.5131    0.7925 N   0  0  0  0  0  0  0  0  0  0  0  0
   -0.3013    0.7964    0.2852 C   0  0  0  0  0  0  0  0  0  0  0  0
    1.0065    1.3148    0.4188 C   0  0  0  0  0  0  0  0  0  0  0  0
    1.2939    3.0727    1.0931 Br  0  0  0  0  0  0  0  0  0  0  0  0
    2.1313    0.5772    0.0439 C   0  0  0  0  0  0  0  0  0  0  0  0
    1.9661   -0.7143   -0.4363 C   0  0  0  0  0  0  0  0  0  0  0  0
    3.4770   -1.7313   -0.9397 Br  0  0  0  0  0  0  0  0  0  0  0  0
    0.6937   -1.2711   -0.5342 C   0  0  0  0  0  0  0  0  0  0  0  0
   -0.4492   -0.5295   -0.1662 C   0  0  0  0  0  0  0  0  0  0  0  0
   -1.7941   -1.2081   -0.2364 C   0  0  0  0  0  0  0  0  0  0  0  0
   -1.8537   -2.1624   -1.2104 F   0  0  0  0  0  0  0  0  0  0  0  0
   -2.8247   -0.3547   -0.5090 F   0  0  0  0  0  0  0  0  0  0  0  0
   -2.1253   -1.8436    0.9207 F   0  0  0  0  0  0  0  0  0  0  0  0
   -1.2266    2.5139    0.8761 H   0  0  0  0  0  0  0  0  0  0  0  0
   -2.2988    1.3175    0.3532 H   0  0  0  0  0  0  0  0  0  0  0  0
    3.1259    1.0049    0.1373 H   0  0  0  0  0  0  0  0  0  0  0  0
    0.5793   -2.2956   -0.8885 H   0  0  0  0  0  0  0  0  0  0  0  0
  1  2  1  0
  2  3  2  0
  3  4  1  0
  3  5  1  0
  5  6  2  0
  6  7  1  0
  6  8  1  0
  8  9  2  0
  9 10  1  0
 10 11  1  0
 10 12  1  0
 10 13  1  0
  9  2  1  0
  1 14  1  0
  1 15  1  0
  5 16  1  0
  8 17  1  0
M  END
