
     RDKit          3D

 11 11  0  0  0  0  0  0  0  0999 V2000
   -2.7033    1.3364    0.1064 Cl  0  0  0  0  0  0  0  0  0  0  0  0
   -1.1223    0.6601    0.0346 C   0  0  0  0  0  0  0  0  0  0  0  0
   -0.0373    1.5067   -0.1342 C   0  0  0  0  0  0  0  0  0  0  0  0
    1.2496    1.0898   -0.2049 N   0  0  0  0  0  0  0  0  0  0  0  0
    1.4691   -0.2381   -0.1023 C   0  0  0  0  0  0  0  0  0  0  0  0
    3.2627   -0.8435   -0.1986 Br  0  0  0  0  0  0  0  0  0  0  0  0
    0.4567   -1.1676    0.0679 C   0  0  0  0  0  0  0  0  0  0  0  0
   -0.8581   -0.7044    0.1367 C   0  0  0  0  0  0  0  0  0  0  0  0
   -2.2303   -1.9961    0.3703 Br  0  0  0  0  0  0  0  0  0  0  0  0
   -0.1703    2.5823   -0.2210 H   0  0  0  0  0  0  0  0  0  0  0  0
    0.6836   -2.2256    0.1452 H   0  0  0  0  0  0  0  0  0  0  0  0
  1  2  1  0
  2  3  2  0
  3  4  1  0
  4  5  2  0
  5  6  1  0
  5  7  1  0
  7  8  2  0
  8  9  1  0
  8  2  1  0
  3 10  1  0
  7 11  1  0
M  END
