
     RDKit          3D

 25 25  0  0  0  0  0  0  0  0999 V2000
   -1.4174   -0.5474   -1.6410 C   0  0  0  0  0  0  0  0  0  0  0  0
   -1.1998   -0.0711   -0.1876 C   0  0  0  0  0  0  0  0  0  0  0  0
   -2.0723    1.1993   -0.0146 C   0  0  0  0  0  0  0  0  0  0  0  0
   -1.7649   -1.1181    0.7980 C   0  0  0  0  0  0  0  0  0  0  0  0
    0.3033    0.1683    0.0826 C   0  0  0  0  0  0  0  0  0  0  0  0
    0.7861    1.4428    0.4496 C   0  0  0  0  0  0  0  0  0  0  0  0
    2.1451    1.6717    0.6967 C   0  0  0  0  0  0  0  0  0  0  0  0
    2.7268    3.4049    1.1852 Br  0  0  0  0  0  0  0  0  0  0  0  0
    3.0725    0.6450    0.5886 C   0  0  0  0  0  0  0  0  0  0  0  0
    2.6275   -0.6212    0.2290 C   0  0  0  0  0  0  0  0  0  0  0  0
    3.9009   -2.0216    0.0827 Br  0  0  0  0  0  0  0  0  0  0  0  0
    1.2646   -0.8594   -0.0209 C   0  0  0  0  0  0  0  0  0  0  0  0
    0.8602   -2.1206   -0.3737 O   0  0  0  0  0  0  0  0  0  0  0  0
   -0.9881    0.1644   -2.3562 H   0  0  0  0  0  0  0  0  0  0  0  0
   -0.9681   -1.5241   -1.8408 H   0  0  0  0  0  0  0  0  0  0  0  0
   -2.4858   -0.6436   -1.8686 H   0  0  0  0  0  0  0  0  0  0  0  0
   -3.1290    0.9843   -0.2154 H   0  0  0  0  0  0  0  0  0  0  0  0
   -1.7718    1.9939   -0.7076 H   0  0  0  0  0  0  0  0  0  0  0  0
   -2.0161    1.5927    1.0072 H   0  0  0  0  0  0  0  0  0  0  0  0
   -1.5854   -0.8168    1.8369 H   0  0  0  0  0  0  0  0  0  0  0  0
   -1.3249   -2.1102    0.6638 H   0  0  0  0  0  0  0  0  0  0  0  0
   -2.8472   -1.2373    0.6687 H   0  0  0  0  0  0  0  0  0  0  0  0
    0.1106    2.2878    0.5511 H   0  0  0  0  0  0  0  0  0  0  0  0
    4.1250    0.8295    0.7817 H   0  0  0  0  0  0  0  0  0  0  0  0
    1.6483   -2.6931   -0.3953 H   0  0  0  0  0  0  0  0  0  0  0  0
  1  2  1  0
  2  3  1  0
  2  4  1  0
  2  5  1  0
  5  6  2  0
  6  7  1  0
  7  8  1  0
  7  9  2  0
  9 10  1  0
 10 11  1  0
 10 12  2  0
 12 13  1  0
 12  5  1  0
  1 14  1  0
  1 15  1  0
  1 16  1  0
  3 17  1  0
  3 18  1  0
  3 19  1  0
  4 20  1  0
  4 21  1  0
  4 22  1  0
  6 23  1  0
  9 24  1  0
 13 25  1  0
M  END
