
     RDKit          3D

 20 20  0  0  0  0  0  0  0  0999 V2000
    2.4172   -0.5785   -0.6844 C   0  0  0  0  0  0  0  0  0  0  0  0
    1.5522   -0.6822    0.5631 C   0  0  0  0  0  0  0  0  0  0  0  0
    0.1061   -0.3406    0.2777 C   0  0  0  0  0  0  0  0  0  0  0  0
   -0.7715   -1.3942   -0.0442 C   0  0  0  0  0  0  0  0  0  0  0  0
   -2.1210   -1.1473   -0.2871 C   0  0  0  0  0  0  0  0  0  0  0  0
   -3.2758   -2.5833   -0.7093 Br  0  0  0  0  0  0  0  0  0  0  0  0
   -2.6261    0.1436   -0.2082 C   0  0  0  0  0  0  0  0  0  0  0  0
   -1.7618    1.1955    0.1008 C   0  0  0  0  0  0  0  0  0  0  0  0
   -2.5060    2.9454    0.2048 Br  0  0  0  0  0  0  0  0  0  0  0  0
   -0.3799    0.9839    0.3009 C   0  0  0  0  0  0  0  0  0  0  0  0
    0.4499    2.0426    0.7191 N   0  0  0  0  0  0  0  0  0  0  0  0
    2.4073    0.4352   -1.0979 H   0  0  0  0  0  0  0  0  0  0  0  0
    3.4541   -0.8374   -0.4476 H   0  0  0  0  0  0  0  0  0  0  0  0
    2.0678   -1.2618   -1.4660 H   0  0  0  0  0  0  0  0  0  0  0  0
    1.6170   -1.7018    0.9638 H   0  0  0  0  0  0  0  0  0  0  0  0
    1.9486   -0.0368    1.3553 H   0  0  0  0  0  0  0  0  0  0  0  0
   -0.3947   -2.4142   -0.0910 H   0  0  0  0  0  0  0  0  0  0  0  0
   -3.6821    0.3313   -0.3797 H   0  0  0  0  0  0  0  0  0  0  0  0
    1.4242    1.9442    0.4575 H   0  0  0  0  0  0  0  0  0  0  0  0
    0.0743    2.9560    0.4727 H   0  0  0  0  0  0  0  0  0  0  0  0
  1  2  1  0
  2  3  1  0
  3  4  2  0
  4  5  1  0
  5  6  1  0
  5  7  2  0
  7  8  1  0
  8  9  1  0
  8 10  2  0
 10 11  1  0
 10  3  1  0
  1 12  1  0
  1 13  1  0
  1 14  1  0
  2 15  1  0
  2 16  1  0
  4 17  1  0
  7 18  1  0
 11 19  1  0
 11 20  1  0
M  END
