
     RDKit          3D

 14 14  0  0  0  0  0  0  0  0999 V2000
    2.3418   -0.0206    0.3559 N   0  0  0  0  0  0  0  0  0  0  0  0
    0.9641    0.0061    0.0830 C   0  0  0  0  0  0  0  0  0  0  0  0
    0.3752   -1.1156   -0.5164 C   0  0  0  0  0  0  0  0  0  0  0  0
   -1.0089   -1.1924   -0.6989 C   0  0  0  0  0  0  0  0  0  0  0  0
   -1.8238   -0.1570   -0.2463 C   0  0  0  0  0  0  0  0  0  0  0  0
   -3.6947   -0.2734   -0.4989 Br  0  0  0  0  0  0  0  0  0  0  0  0
   -1.2613    0.9424    0.3968 C   0  0  0  0  0  0  0  0  0  0  0  0
   -2.0533    1.9298    0.8471 F   0  0  0  0  0  0  0  0  0  0  0  0
    0.1217    1.0177    0.5793 C   0  0  0  0  0  0  0  0  0  0  0  0
    0.8512    2.5262    1.4799 Br  0  0  0  0  0  0  0  0  0  0  0  0
    2.7316    0.8992    0.5534 H   0  0  0  0  0  0  0  0  0  0  0  0
    2.8985   -0.5473   -0.3097 H   0  0  0  0  0  0  0  0  0  0  0  0
    0.9955   -1.9473   -0.8443 H   0  0  0  0  0  0  0  0  0  0  0  0
   -1.4375   -2.0677   -1.1810 H   0  0  0  0  0  0  0  0  0  0  0  0
  1  2  1  0
  2  3  2  0
  3  4  1  0
  4  5  2  0
  5  6  1  0
  5  7  1  0
  7  8  1  0
  7  9  2  0
  9 10  1  0
  9  2  1  0
  1 11  1  0
  1 12  1  0
  3 13  1  0
  4 14  1  0
M  END
