
     RDKit          3D

 20 21  0  0  0  0  0  0  0  0999 V2000
    2.5652   -0.9714   -0.1048 N   0  0  0  0  0  0  0  0  0  0  0  0
    1.5315   -0.0052    0.0027 C   0  0  0  0  0  0  0  0  0  0  0  0
    1.8558    1.3639   -0.0477 C   0  0  0  0  0  0  0  0  0  0  0  0
    3.6680    1.9448   -0.1085 Br  0  0  0  0  0  0  0  0  0  0  0  0
    0.8673    2.3392   -0.0162 C   0  0  0  0  0  0  0  0  0  0  0  0
   -0.4740    1.9610    0.0305 C   0  0  0  0  0  0  0  0  0  0  0  0
   -1.7385    3.3897    0.0850 Br  0  0  0  0  0  0  0  0  0  0  0  0
   -0.8598    0.5970    0.0199 C   0  0  0  0  0  0  0  0  0  0  0  0
   -2.2128    0.1723    0.0331 C   0  0  0  0  0  0  0  0  0  0  0  0
   -2.5671   -1.1758   -0.0105 C   0  0  0  0  0  0  0  0  0  0  0  0
   -1.5780   -2.1409   -0.0760 C   0  0  0  0  0  0  0  0  0  0  0  0
   -0.2374   -1.7553   -0.0828 C   0  0  0  0  0  0  0  0  0  0  0  0
    0.1597   -0.3969   -0.0197 C   0  0  0  0  0  0  0  0  0  0  0  0
    3.4781   -0.5833    0.1257 H   0  0  0  0  0  0  0  0  0  0  0  0
    2.3790   -1.8213    0.4164 H   0  0  0  0  0  0  0  0  0  0  0  0
    1.1402    3.3912   -0.0296 H   0  0  0  0  0  0  0  0  0  0  0  0
   -3.0251    0.8947    0.0694 H   0  0  0  0  0  0  0  0  0  0  0  0
   -3.6150   -1.4641   -0.0047 H   0  0  0  0  0  0  0  0  0  0  0  0
   -1.8423   -3.1938   -0.1266 H   0  0  0  0  0  0  0  0  0  0  0  0
    0.5053   -2.5459   -0.1556 H   0  0  0  0  0  0  0  0  0  0  0  0
  1  2  1  0
  2  3  2  0
  3  4  1  0
  3  5  1  0
  5  6  2  0
  6  7  1  0
  6  8  1  0
  8  9  2  0
  9 10  1  0
 10 11  2  0
 11 12  1  0
 12 13  2  0
 13  2  1  0
 13  8  1  0
  1 14  1  0
  1 15  1  0
  5 16  1  0
  9 17  1  0
 10 18  1  0
 11 19  1  0
 12 20  1  0
M  END
