
     RDKit          3D

 16 17  0  0  0  0  0  0  0  0999 V2000
    4.0585   -1.9964   -0.3443 Br  0  0  0  0  0  0  0  0  0  0  0  0
    2.5119   -0.9129   -0.1566 C   0  0  0  0  0  0  0  0  0  0  0  0
    2.6982    0.3880    0.0713 N   0  0  0  0  0  0  0  0  0  0  0  0
    1.5799    1.1252    0.1990 C   0  0  0  0  0  0  0  0  0  0  0  0
    1.8931    2.9815    0.5243 Br  0  0  0  0  0  0  0  0  0  0  0  0
    0.2780    0.6148    0.1080 C   0  0  0  0  0  0  0  0  0  0  0  0
   -0.9363    1.3446    0.2342 C   0  0  0  0  0  0  0  0  0  0  0  0
   -2.1690    0.7057    0.1208 C   0  0  0  0  0  0  0  0  0  0  0  0
   -2.2080   -0.6601   -0.1183 C   0  0  0  0  0  0  0  0  0  0  0  0
   -1.0145   -1.3758   -0.2421 C   0  0  0  0  0  0  0  0  0  0  0  0
    0.2276   -0.7623   -0.1332 C   0  0  0  0  0  0  0  0  0  0  0  0
    1.3212   -1.5186   -0.2642 N   0  0  0  0  0  0  0  0  0  0  0  0
   -0.9297    2.4159    0.4217 H   0  0  0  0  0  0  0  0  0  0  0  0
   -3.0919    1.2723    0.2188 H   0  0  0  0  0  0  0  0  0  0  0  0
   -3.1615   -1.1746   -0.2096 H   0  0  0  0  0  0  0  0  0  0  0  0
   -1.0574   -2.4473   -0.4297 H   0  0  0  0  0  0  0  0  0  0  0  0
  1  2  1  0
  2  3  2  0
  3  4  1  0
  4  5  1  0
  4  6  2  0
  6  7  1  0
  7  8  2  0
  8  9  1  0
  9 10  2  0
 10 11  1  0
 11 12  2  0
 12  2  1  0
 11  6  1  0
  7 13  1  0
  8 14  1  0
  9 15  1  0
 10 16  1  0
M  END
