
     RDKit          3D

 18 18  0  0  0  0  0  0  0  0999 V2000
   -0.7650   -1.1401    1.6915 N   0  0  0  0  0  0  0  0  0  0  0  0
   -0.6982   -0.5878    0.3938 C   0  0  0  0  0  0  0  0  0  0  0  0
   -1.8349   -0.0991   -0.2708 C   0  0  0  0  0  0  0  0  0  0  0  0
   -3.5698   -0.3198    0.4730 Br  0  0  0  0  0  0  0  0  0  0  0  0
   -1.7273    0.5371   -1.5117 C   0  0  0  0  0  0  0  0  0  0  0  0
   -0.4698    0.7206   -2.0849 C   0  0  0  0  0  0  0  0  0  0  0  0
   -0.3231    1.5708   -3.7668 Br  0  0  0  0  0  0  0  0  0  0  0  0
    0.6793    0.2979   -1.4238 C   0  0  0  0  0  0  0  0  0  0  0  0
    0.5571   -0.3150   -0.1768 C   0  0  0  0  0  0  0  0  0  0  0  0
    1.6993   -0.7109    0.4737 O   0  0  0  0  0  0  0  0  0  0  0  0
    2.0898    0.3009    1.3970 C   0  0  0  0  0  0  0  0  0  0  0  0
    3.0091   -0.2528    2.2290 F   0  0  0  0  0  0  0  0  0  0  0  0
    2.7309    1.2816    0.7112 F   0  0  0  0  0  0  0  0  0  0  0  0
   -0.0177   -1.8130    1.8588 H   0  0  0  0  0  0  0  0  0  0  0  0
   -1.6813   -1.5383    1.8935 H   0  0  0  0  0  0  0  0  0  0  0  0
   -2.6181    0.8885   -2.0262 H   0  0  0  0  0  0  0  0  0  0  0  0
    1.6639    0.4548   -1.8564 H   0  0  0  0  0  0  0  0  0  0  0  0
    1.2759    0.7245    1.9960 H   0  0  0  0  0  0  0  0  0  0  0  0
  1  2  1  0
  2  3  2  0
  3  4  1  0
  3  5  1  0
  5  6  2  0
  6  7  1  0
  6  8  1  0
  8  9  2  0
  9 10  1  0
 10 11  1  0
 11 12  1  0
 11 13  1  0
  9  2  1  0
  1 14  1  0
  1 15  1  0
  5 16  1  0
  8 17  1  0
 11 18  1  0
M  END
