
     RDKit          3D

 15 15  0  0  0  0  0  0  0  0999 V2000
   -1.6243   -0.9021    0.2912 C   0  0  0  0  0  0  0  0  0  0  0  0
   -0.7090    0.2156   -0.0430 C   0  0  0  0  0  0  0  0  0  0  0  0
   -0.9496    1.5269   -0.4034 C   0  0  0  0  0  0  0  0  0  0  0  0
   -2.6366    2.3471   -0.5916 Br  0  0  0  0  0  0  0  0  0  0  0  0
    0.2131    2.2114   -0.6226 N   0  0  0  0  0  0  0  0  0  0  0  0
    1.1720    1.3426   -0.4032 C   0  0  0  0  0  0  0  0  0  0  0  0
    3.0221    1.7957   -0.5745 Br  0  0  0  0  0  0  0  0  0  0  0  0
    0.6661    0.1170   -0.0488 N   0  0  0  0  0  0  0  0  0  0  0  0
    1.4607   -1.0480    0.2573 C   0  0  0  0  0  0  0  0  0  0  0  0
   -1.4400   -1.2589    1.3097 H   0  0  0  0  0  0  0  0  0  0  0  0
   -2.6740   -0.6008    0.2324 H   0  0  0  0  0  0  0  0  0  0  0  0
   -1.4814   -1.7370   -0.4025 H   0  0  0  0  0  0  0  0  0  0  0  0
    2.1026   -0.8163    1.1112 H   0  0  0  0  0  0  0  0  0  0  0  0
    0.8176   -1.8933    0.5089 H   0  0  0  0  0  0  0  0  0  0  0  0
    2.0607   -1.2999   -0.6210 H   0  0  0  0  0  0  0  0  0  0  0  0
  1  2  1  0
  2  3  2  0
  3  4  1  0
  3  5  1  0
  5  6  2  0
  6  7  1  0
  6  8  1  0
  8  9  1  0
  8  2  1  0
  1 10  1  0
  1 11  1  0
  1 12  1  0
  9 13  1  0
  9 14  1  0
  9 15  1  0
M  END
