
     RDKit          3D

 19 20  0  0  0  0  0  0  0  0999 V2000
   -1.3399   -2.4743   -0.6048 O   0  0  0  0  0  0  0  0  0  0  0  0
   -1.2267   -1.1386   -0.3016 C   0  0  0  0  0  0  0  0  0  0  0  0
   -2.4050   -0.4081   -0.1252 C   0  0  0  0  0  0  0  0  0  0  0  0
   -4.1151   -1.2073   -0.3236 Br  0  0  0  0  0  0  0  0  0  0  0  0
   -2.3440    0.9339    0.2251 C   0  0  0  0  0  0  0  0  0  0  0  0
   -1.1016    1.5496    0.3977 C   0  0  0  0  0  0  0  0  0  0  0  0
   -1.1472    3.3920    0.8932 Br  0  0  0  0  0  0  0  0  0  0  0  0
    0.1141    0.8406    0.2063 C   0  0  0  0  0  0  0  0  0  0  0  0
    1.3959    1.4266    0.3578 C   0  0  0  0  0  0  0  0  0  0  0  0
    2.5702    0.7060    0.1382 C   0  0  0  0  0  0  0  0  0  0  0  0
    2.4991   -0.6214   -0.2489 C   0  0  0  0  0  0  0  0  0  0  0  0
    1.2538   -1.2299   -0.4022 C   0  0  0  0  0  0  0  0  0  0  0  0
    0.0459   -0.5301   -0.1650 C   0  0  0  0  0  0  0  0  0  0  0  0
   -0.6300   -2.9506   -0.1449 H   0  0  0  0  0  0  0  0  0  0  0  0
   -3.2611    1.4995    0.3699 H   0  0  0  0  0  0  0  0  0  0  0  0
    1.5023    2.4700    0.6471 H   0  0  0  0  0  0  0  0  0  0  0  0
    3.5359    1.1904    0.2593 H   0  0  0  0  0  0  0  0  0  0  0  0
    3.4093   -1.1841   -0.4403 H   0  0  0  0  0  0  0  0  0  0  0  0
    1.2441   -2.2642   -0.7380 H   0  0  0  0  0  0  0  0  0  0  0  0
  1  2  1  0
  2  3  2  0
  3  4  1  0
  3  5  1  0
  5  6  2  0
  6  7  1  0
  6  8  1  0
  8  9  2  0
  9 10  1  0
 10 11  2  0
 11 12  1  0
 12 13  2  0
 13  2  1  0
 13  8  1  0
  1 14  1  0
  5 15  1  0
  9 16  1  0
 10 17  1  0
 11 18  1  0
 12 19  1  0
M  END
