
     RDKit          3D

 17 17  0  0  0  0  0  0  0  0999 V2000
   -0.9668   -1.8037    0.7931 C   0  0  0  0  0  0  0  0  0  0  0  0
   -0.1306   -0.6912    0.2200 C   0  0  0  0  0  0  0  0  0  0  0  0
    1.2036   -0.9594   -0.1347 C   0  0  0  0  0  0  0  0  0  0  0  0
    2.0219    0.0535   -0.6314 C   0  0  0  0  0  0  0  0  0  0  0  0
    3.8137   -0.3321   -1.0957 Br  0  0  0  0  0  0  0  0  0  0  0  0
    1.5360    1.3468   -0.7744 C   0  0  0  0  0  0  0  0  0  0  0  0
    0.2112    1.6192   -0.4284 C   0  0  0  0  0  0  0  0  0  0  0  0
   -0.4039    3.4097   -0.6295 Br  0  0  0  0  0  0  0  0  0  0  0  0
   -0.6557    0.6035    0.0283 C   0  0  0  0  0  0  0  0  0  0  0  0
   -1.9519    0.9167    0.4830 N   0  0  0  0  0  0  0  0  0  0  0  0
   -1.3542   -1.5221    1.7776 H   0  0  0  0  0  0  0  0  0  0  0  0
   -0.3834   -2.7215    0.9225 H   0  0  0  0  0  0  0  0  0  0  0  0
   -1.8011   -2.0333    0.1227 H   0  0  0  0  0  0  0  0  0  0  0  0
    1.6068   -1.9621   -0.0078 H   0  0  0  0  0  0  0  0  0  0  0  0
    2.1818    2.1380   -1.1441 H   0  0  0  0  0  0  0  0  0  0  0  0
   -2.3091    1.7825    0.0845 H   0  0  0  0  0  0  0  0  0  0  0  0
   -2.6183    0.1556    0.4142 H   0  0  0  0  0  0  0  0  0  0  0  0
  1  2  1  0
  2  3  2  0
  3  4  1  0
  4  5  1  0
  4  6  2  0
  6  7  1  0
  7  8  1  0
  7  9  2  0
  9 10  1  0
  9  2  1  0
  1 11  1  0
  1 12  1  0
  1 13  1  0
  3 14  1  0
  6 15  1  0
 10 16  1  0
 10 17  1  0
M  END
