
     RDKit          3D

 13 13  0  0  0  0  0  0  0  0999 V2000
   -1.9218   -0.1733    0.3402 C   0  0  0  0  0  0  0  0  0  0  0  0
   -0.4569   -0.0589    0.0774 C   0  0  0  0  0  0  0  0  0  0  0  0
    0.2898   -1.1613   -0.2826 C   0  0  0  0  0  0  0  0  0  0  0  0
    1.6105   -1.1274   -0.5330 N   0  0  0  0  0  0  0  0  0  0  0  0
    2.2067    0.0685   -0.4160 C   0  0  0  0  0  0  0  0  0  0  0  0
    4.0702    0.1533   -0.7622 Br  0  0  0  0  0  0  0  0  0  0  0  0
    1.5902    1.2055   -0.0746 N   0  0  0  0  0  0  0  0  0  0  0  0
    0.2685    1.1164    0.1653 C   0  0  0  0  0  0  0  0  0  0  0  0
   -0.5810    2.7524    0.6493 Br  0  0  0  0  0  0  0  0  0  0  0  0
   -2.2722   -1.2029    0.2078 H   0  0  0  0  0  0  0  0  0  0  0  0
   -2.4885    0.4543   -0.3551 H   0  0  0  0  0  0  0  0  0  0  0  0
   -2.1529    0.1182    1.3697 H   0  0  0  0  0  0  0  0  0  0  0  0
   -0.1627   -2.1449   -0.3862 H   0  0  0  0  0  0  0  0  0  0  0  0
  1  2  1  0
  2  3  2  0
  3  4  1  0
  4  5  2  0
  5  6  1  0
  5  7  1  0
  7  8  2  0
  8  9  1  0
  8  2  1  0
  1 10  1  0
  1 11  1  0
  1 12  1  0
  3 13  1  0
M  END
