
     RDKit          3D

 17 17  0  0  0  0  0  0  0  0999 V2000
   -2.4288   -0.7561    0.1476 C   0  0  0  0  0  0  0  0  0  0  0  0
   -1.0712   -0.1154    0.0676 C   0  0  0  0  0  0  0  0  0  0  0  0
    0.0678   -0.9359   -0.0293 C   0  0  0  0  0  0  0  0  0  0  0  0
    1.3608   -0.3990   -0.0843 C   0  0  0  0  0  0  0  0  0  0  0  0
    2.4465   -1.2634   -0.3027 N   0  0  0  0  0  0  0  0  0  0  0  0
    1.4962    0.9966   -0.1337 C   0  0  0  0  0  0  0  0  0  0  0  0
    3.2083    1.8068   -0.2976 Br  0  0  0  0  0  0  0  0  0  0  0  0
    0.3811    1.8311   -0.0384 C   0  0  0  0  0  0  0  0  0  0  0  0
   -0.8956    1.2759    0.0685 C   0  0  0  0  0  0  0  0  0  0  0  0
   -2.3646    2.4739    0.1927 Br  0  0  0  0  0  0  0  0  0  0  0  0
   -3.0391   -0.4682   -0.7143 H   0  0  0  0  0  0  0  0  0  0  0  0
   -2.3575   -1.8492    0.1464 H   0  0  0  0  0  0  0  0  0  0  0  0
   -2.9357   -0.4662    1.0735 H   0  0  0  0  0  0  0  0  0  0  0  0
   -0.0555   -2.0168   -0.0666 H   0  0  0  0  0  0  0  0  0  0  0  0
    3.3431   -0.8380   -0.0770 H   0  0  0  0  0  0  0  0  0  0  0  0
    2.3367   -2.1866    0.1039 H   0  0  0  0  0  0  0  0  0  0  0  0
    0.5074    2.9105   -0.0565 H   0  0  0  0  0  0  0  0  0  0  0  0
  1  2  1  0
  2  3  2  0
  3  4  1  0
  4  5  1  0
  4  6  2  0
  6  7  1  0
  6  8  1  0
  8  9  2  0
  9 10  1  0
  9  2  1  0
  1 11  1  0
  1 12  1  0
  1 13  1  0
  3 14  1  0
  5 15  1  0
  5 16  1  0
  8 17  1  0
M  END
