
     RDKit          3D

 14 14  0  0  0  0  0  0  0  0999 V2000
    2.3473   -0.1593    0.2759 N   0  0  0  0  0  0  0  0  0  0  0  0
    0.9651   -0.0492    0.0505 C   0  0  0  0  0  0  0  0  0  0  0  0
    0.2955   -1.1189   -0.5592 C   0  0  0  0  0  0  0  0  0  0  0  0
   -1.0958   -1.1143   -0.6968 C   0  0  0  0  0  0  0  0  0  0  0  0
   -1.8367   -0.0495   -0.1888 C   0  0  0  0  0  0  0  0  0  0  0  0
   -3.7184   -0.0557   -0.3810 Br  0  0  0  0  0  0  0  0  0  0  0  0
   -1.1933    0.9981    0.4649 C   0  0  0  0  0  0  0  0  0  0  0  0
   -1.9141    2.0138    0.9686 F   0  0  0  0  0  0  0  0  0  0  0  0
    0.1969    0.9921    0.6026 C   0  0  0  0  0  0  0  0  0  0  0  0
    1.0380    2.4314    1.5190 Br  0  0  0  0  0  0  0  0  0  0  0  0
    2.8520   -0.6961   -0.4224 H   0  0  0  0  0  0  0  0  0  0  0  0
    2.7939    0.7315    0.4852 H   0  0  0  0  0  0  0  0  0  0  0  0
    0.8577   -1.9734   -0.9306 H   0  0  0  0  0  0  0  0  0  0  0  0
   -1.5879   -1.9503   -1.1880 H   0  0  0  0  0  0  0  0  0  0  0  0
  1  2  1  0
  2  3  2  0
  3  4  1  0
  4  5  2  0
  5  6  1  0
  5  7  1  0
  7  8  1  0
  7  9  2  0
  9 10  1  0
  9  2  1  0
  1 11  1  0
  1 12  1  0
  3 13  1  0
  4 14  1  0
M  END
