
     RDKit          3D

 17 18  0  0  0  0  0  0  0  0999 V2000
    4.0184   -1.7400   -0.3487 Br  0  0  0  0  0  0  0  0  0  0  0  0
    2.3953   -0.7748   -0.1724 C   0  0  0  0  0  0  0  0  0  0  0  0
    2.4496    0.5895    0.0104 C   0  0  0  0  0  0  0  0  0  0  0  0
    1.2433    1.2698    0.1364 C   0  0  0  0  0  0  0  0  0  0  0  0
    1.3502    3.1544    0.3880 Br  0  0  0  0  0  0  0  0  0  0  0  0
    0.0102    0.5817    0.0783 C   0  0  0  0  0  0  0  0  0  0  0  0
   -1.2684    1.1849    0.1959 C   0  0  0  0  0  0  0  0  0  0  0  0
   -2.4351    0.4246    0.1262 C   0  0  0  0  0  0  0  0  0  0  0  0
   -2.3467   -0.9464   -0.0615 C   0  0  0  0  0  0  0  0  0  0  0  0
   -1.0923   -1.5478   -0.1782 C   0  0  0  0  0  0  0  0  0  0  0  0
    0.0847   -0.8142   -0.1124 C   0  0  0  0  0  0  0  0  0  0  0  0
    1.2458   -1.4752   -0.2345 N   0  0  0  0  0  0  0  0  0  0  0  0
    3.3999    1.1092    0.0538 H   0  0  0  0  0  0  0  0  0  0  0  0
   -1.3697    2.2575    0.3437 H   0  0  0  0  0  0  0  0  0  0  0  0
   -3.4065    0.9040    0.2184 H   0  0  0  0  0  0  0  0  0  0  0  0
   -3.2471   -1.5527   -0.1180 H   0  0  0  0  0  0  0  0  0  0  0  0
   -1.0315   -2.6244   -0.3254 H   0  0  0  0  0  0  0  0  0  0  0  0
  1  2  1  0
  2  3  2  0
  3  4  1  0
  4  5  1  0
  4  6  2  0
  6  7  1  0
  7  8  2  0
  8  9  1  0
  9 10  2  0
 10 11  1  0
 11 12  2  0
 12  2  1  0
 11  6  1  0
  3 13  1  0
  7 14  1  0
  8 15  1  0
  9 16  1  0
 10 17  1  0
M  END
