
     RDKit          3D

 14 14  0  0  0  0  0  0  0  0999 V2000
   -2.8787   -1.2947   -0.5853 O   0  0  0  0  0  0  0  0  0  0  0  0
   -2.3640   -0.2069   -0.3474 C   0  0  0  0  0  0  0  0  0  0  0  0
   -0.9056   -0.0704   -0.1317 C   0  0  0  0  0  0  0  0  0  0  0  0
   -0.1210   -1.2325   -0.2079 C   0  0  0  0  0  0  0  0  0  0  0  0
    1.2603   -1.1693   -0.0139 C   0  0  0  0  0  0  0  0  0  0  0  0
    1.8606    0.0570    0.2570 C   0  0  0  0  0  0  0  0  0  0  0  0
    3.7302    0.1470    0.5202 Br  0  0  0  0  0  0  0  0  0  0  0  0
    1.0945    1.2196    0.3357 C   0  0  0  0  0  0  0  0  0  0  0  0
   -0.2916    1.1591    0.1415 C   0  0  0  0  0  0  0  0  0  0  0  0
   -1.2439    2.7975    0.2695 Br  0  0  0  0  0  0  0  0  0  0  0  0
   -2.9868    0.6977   -0.2897 H   0  0  0  0  0  0  0  0  0  0  0  0
   -0.5847   -2.1955   -0.4197 H   0  0  0  0  0  0  0  0  0  0  0  0
    1.8528   -2.0792   -0.0765 H   0  0  0  0  0  0  0  0  0  0  0  0
    1.5779    2.1707    0.5482 H   0  0  0  0  0  0  0  0  0  0  0  0
  1  2  2  0
  2  3  1  0
  3  4  2  0
  4  5  1  0
  5  6  2  0
  6  7  1  0
  6  8  1  0
  8  9  2  0
  9 10  1  0
  9  3  1  0
  2 11  1  0
  4 12  1  0
  5 13  1  0
  8 14  1  0
M  END
