
     RDKit          3D

 15 15  0  0  0  0  0  0  0  0999 V2000
   -2.9811   -0.4274   -0.3099 O   0  0  0  0  0  0  0  0  0  0  0  0
   -1.9875   -1.1549   -0.1598 N   0  0  0  0  0  4  0  0  0  0  0  0
   -2.0240   -2.3902   -0.0973 O   0  0  0  0  0  1  0  0  0  0  0  0
   -0.6801   -0.4979   -0.0491 C   0  0  0  0  0  0  0  0  0  0  0  0
    0.4578   -1.3049    0.1215 C   0  0  0  0  0  0  0  0  0  0  0  0
    1.7132   -0.7074    0.2295 C   0  0  0  0  0  0  0  0  0  0  0  0
    3.2389   -1.8024    0.4589 Br  0  0  0  0  0  0  0  0  0  0  0  0
    1.8410    0.6788    0.1690 C   0  0  0  0  0  0  0  0  0  0  0  0
    3.0563    1.2394    0.2746 F   0  0  0  0  0  0  0  0  0  0  0  0
    0.7118    1.4838   -0.0005 C   0  0  0  0  0  0  0  0  0  0  0  0
    0.9414    3.3698   -0.0765 Br  0  0  0  0  0  0  0  0  0  0  0  0
   -0.5617    0.9025   -0.1114 C   0  0  0  0  0  0  0  0  0  0  0  0
   -1.6287    1.7486   -0.2762 O   0  0  0  0  0  0  0  0  0  0  0  0
    0.3745   -2.3898    0.1706 H   0  0  0  0  0  0  0  0  0  0  0  0
   -2.4719    1.2520   -0.3436 H   0  0  0  0  0  0  0  0  0  0  0  0
  1  2  2  0
  2  3  1  0
  2  4  1  0
  4  5  2  0
  5  6  1  0
  6  7  1  0
  6  8  2  0
  8  9  1  0
  8 10  1  0
 10 11  1  0
 10 12  2  0
 12 13  1  0
 12  4  1  0
  5 14  1  0
 13 15  1  0
M  CHG  2   2   1   3  -1
M  END
