
     RDKit          3D

 20 20  0  0  0  0  0  0  0  0999 V2000
    2.5269    0.0061   -0.5107 C   0  0  0  0  0  0  0  0  0  0  0  0
    1.6292    0.2226    0.6986 C   0  0  0  0  0  0  0  0  0  0  0  0
    0.1670    0.2794    0.3137 C   0  0  0  0  0  0  0  0  0  0  0  0
   -0.3999    1.5421    0.0528 C   0  0  0  0  0  0  0  0  0  0  0  0
   -1.7484    1.6626   -0.2763 C   0  0  0  0  0  0  0  0  0  0  0  0
   -2.4822    3.3719   -0.6136 Br  0  0  0  0  0  0  0  0  0  0  0  0
   -2.5596    0.5380   -0.3452 C   0  0  0  0  0  0  0  0  0  0  0  0
   -2.0044   -0.7187   -0.0975 C   0  0  0  0  0  0  0  0  0  0  0  0
   -3.1614   -2.2281   -0.1966 Br  0  0  0  0  0  0  0  0  0  0  0  0
   -0.6303   -0.8779    0.1871 C   0  0  0  0  0  0  0  0  0  0  0  0
   -0.1176   -2.1413    0.5410 N   0  0  0  0  0  0  0  0  0  0  0  0
    3.5765   -0.0238   -0.2013 H   0  0  0  0  0  0  0  0  0  0  0  0
    2.4116    0.8160   -1.2391 H   0  0  0  0  0  0  0  0  0  0  0  0
    2.2968   -0.9358   -1.0192 H   0  0  0  0  0  0  0  0  0  0  0  0
    1.7984   -0.5635    1.4433 H   0  0  0  0  0  0  0  0  0  0  0  0
    1.9146    1.1574    1.1976 H   0  0  0  0  0  0  0  0  0  0  0  0
    0.2185    2.4351    0.1215 H   0  0  0  0  0  0  0  0  0  0  0  0
   -3.6147    0.6360   -0.5836 H   0  0  0  0  0  0  0  0  0  0  0  0
    0.8669   -2.2700    0.3365 H   0  0  0  0  0  0  0  0  0  0  0  0
   -0.6881   -2.9081    0.1909 H   0  0  0  0  0  0  0  0  0  0  0  0
  1  2  1  0
  2  3  1  0
  3  4  2  0
  4  5  1  0
  5  6  1  0
  5  7  2  0
  7  8  1  0
  8  9  1  0
  8 10  2  0
 10 11  1  0
 10  3  1  0
  1 12  1  0
  1 13  1  0
  1 14  1  0
  2 15  1  0
  2 16  1  0
  4 17  1  0
  7 18  1  0
 11 19  1  0
 11 20  1  0
M  END
