
     RDKit          3D

 20 20  0  0  0  0  0  0  0  0999 V2000
    2.6923   -0.2926   -0.9026 C   0  0  0  0  0  0  0  0  0  0  0  0
    1.2814   -0.0792   -0.4208 C   0  0  0  0  0  0  0  0  0  0  0  0
    0.8365    1.2365   -0.2297 C   0  0  0  0  0  0  0  0  0  0  0  0
   -0.4727    1.5143    0.1676 C   0  0  0  0  0  0  0  0  0  0  0  0
   -0.8198    2.8524    0.4338 N   0  0  0  0  0  0  0  0  0  0  0  0
   -1.3270    0.4379    0.4866 C   0  0  0  0  0  0  0  0  0  0  0  0
   -3.1070    0.8661    1.0593 Br  0  0  0  0  0  0  0  0  0  0  0  0
   -0.9082   -0.9053    0.3429 C   0  0  0  0  0  0  0  0  0  0  0  0
   -1.8405   -2.0524    0.6499 C   0  0  0  0  0  0  0  0  0  0  0  0
    0.3966   -1.1437   -0.1527 C   0  0  0  0  0  0  0  0  0  0  0  0
    0.9903   -2.9349   -0.4904 Br  0  0  0  0  0  0  0  0  0  0  0  0
    3.2589   -0.8895   -0.1808 H   0  0  0  0  0  0  0  0  0  0  0  0
    2.6938   -0.7870   -1.8792 H   0  0  0  0  0  0  0  0  0  0  0  0
    3.2249    0.6575   -1.0210 H   0  0  0  0  0  0  0  0  0  0  0  0
    1.5217    2.0640   -0.4033 H   0  0  0  0  0  0  0  0  0  0  0  0
   -0.3432    3.5327   -0.1490 H   0  0  0  0  0  0  0  0  0  0  0  0
   -1.8267    2.9979    0.4654 H   0  0  0  0  0  0  0  0  0  0  0  0
   -1.3075   -2.9069    1.0771 H   0  0  0  0  0  0  0  0  0  0  0  0
   -2.5858   -1.7998    1.4082 H   0  0  0  0  0  0  0  0  0  0  0  0
   -2.3579   -2.3681   -0.2614 H   0  0  0  0  0  0  0  0  0  0  0  0
  1  2  1  0
  2  3  2  0
  3  4  1  0
  4  5  1  0
  4  6  2  0
  6  7  1  0
  6  8  1  0
  8  9  1  0
  8 10  2  0
 10 11  1  0
 10  2  1  0
  1 12  1  0
  1 13  1  0
  1 14  1  0
  3 15  1  0
  5 16  1  0
  5 17  1  0
  9 18  1  0
  9 19  1  0
  9 20  1  0
M  END
