
     RDKit          3D

 23 23  0  0  0  0  0  0  0  0999 V2000
   -2.3334    0.7797   -0.5938 C   0  0  0  0  0  0  0  0  0  0  0  0
   -1.3594   -0.3568   -0.2556 C   0  0  0  0  0  0  0  0  0  0  0  0
   -1.8439   -1.1286    0.9737 C   0  0  0  0  0  0  0  0  0  0  0  0
    0.0830    0.1029   -0.0551 C   0  0  0  0  0  0  0  0  0  0  0  0
    0.3447    1.2927    0.6562 C   0  0  0  0  0  0  0  0  0  0  0  0
    1.6471    1.7642    0.8188 C   0  0  0  0  0  0  0  0  0  0  0  0
    1.9503    3.3716    1.7675 Br  0  0  0  0  0  0  0  0  0  0  0  0
    2.7206    1.0705    0.2803 C   0  0  0  0  0  0  0  0  0  0  0  0
    2.4824   -0.1212   -0.4035 C   0  0  0  0  0  0  0  0  0  0  0  0
    3.9902   -1.0420   -1.1158 Br  0  0  0  0  0  0  0  0  0  0  0  0
    1.1787   -0.6524   -0.5368 C   0  0  0  0  0  0  0  0  0  0  0  0
    0.9698   -1.8185   -1.3025 N   0  0  0  0  0  0  0  0  0  0  0  0
   -3.3103    0.3707   -0.8756 H   0  0  0  0  0  0  0  0  0  0  0  0
   -1.9650    1.3752   -1.4363 H   0  0  0  0  0  0  0  0  0  0  0  0
   -2.4990    1.4531    0.2535 H   0  0  0  0  0  0  0  0  0  0  0  0
   -1.4040   -1.0307   -1.1188 H   0  0  0  0  0  0  0  0  0  0  0  0
   -1.1944   -1.9858    1.1832 H   0  0  0  0  0  0  0  0  0  0  0  0
   -2.8590   -1.5092    0.8175 H   0  0  0  0  0  0  0  0  0  0  0  0
   -1.8561   -0.4950    1.8678 H   0  0  0  0  0  0  0  0  0  0  0  0
   -0.4746    1.8655    1.0840 H   0  0  0  0  0  0  0  0  0  0  0  0
    3.7321    1.4498    0.3916 H   0  0  0  0  0  0  0  0  0  0  0  0
    1.8169   -2.3744   -1.4031 H   0  0  0  0  0  0  0  0  0  0  0  0
    0.1834   -2.3812   -0.9971 H   0  0  0  0  0  0  0  0  0  0  0  0
  1  2  1  0
  2  3  1  0
  2  4  1  0
  4  5  2  0
  5  6  1  0
  6  7  1  0
  6  8  2  0
  8  9  1  0
  9 10  1  0
  9 11  2  0
 11 12  1  0
 11  4  1  0
  1 13  1  0
  1 14  1  0
  1 15  1  0
  2 16  1  0
  3 17  1  0
  3 18  1  0
  3 19  1  0
  5 20  1  0
  8 21  1  0
 12 22  1  0
 12 23  1  0
M  END
