
     RDKit          3D

 10 10  0  0  0  0  0  0  0  0999 V2000
   -2.1200   -2.2247   -0.0302 Br  0  0  0  0  0  0  0  0  0  0  0  0
   -0.7527   -0.9090   -0.0100 C   0  0  0  0  0  0  0  0  0  0  0  0
   -1.1165    0.4176   -0.0257 C   0  0  0  0  0  0  0  0  0  0  0  0
   -0.0754    1.3108   -0.0097 C   0  0  0  0  0  0  0  0  0  0  0  0
    1.2156    0.9394    0.0194 N   0  0  0  0  0  0  0  0  0  0  0  0
    1.4569   -0.3833    0.0325 C   0  0  0  0  0  0  0  0  0  0  0  0
    3.2711   -0.9384    0.0736 Br  0  0  0  0  0  0  0  0  0  0  0  0
    0.5192   -1.3395    0.0190 N   0  0  0  0  0  0  0  0  0  0  0  0
   -2.1467    0.7441   -0.0491 H   0  0  0  0  0  0  0  0  0  0  0  0
   -0.2514    2.3830   -0.0199 H   0  0  0  0  0  0  0  0  0  0  0  0
  1  2  1  0
  2  3  2  0
  3  4  1  0
  4  5  2  0
  5  6  1  0
  6  7  1  0
  6  8  2  0
  8  2  1  0
  3  9  1  0
  4 10  1  0
M  END
