
     RDKit          3D

 14 14  0  0  0  0  0  0  0  0999 V2000
    2.2103   -0.8238   -0.1055 N   0  0  0  0  0  0  0  0  0  0  0  0
    0.8995   -0.3350    0.0198 C   0  0  0  0  0  0  0  0  0  0  0  0
   -0.1444   -1.2440    0.2300 C   0  0  0  0  0  0  0  0  0  0  0  0
   -1.4758   -0.8182    0.2400 C   0  0  0  0  0  0  0  0  0  0  0  0
   -1.7751    0.5205    0.0004 C   0  0  0  0  0  0  0  0  0  0  0  0
   -3.5762    1.0945    0.0111 Br  0  0  0  0  0  0  0  0  0  0  0  0
   -0.7597    1.4355   -0.2621 C   0  0  0  0  0  0  0  0  0  0  0  0
    0.5686    1.0010   -0.2707 C   0  0  0  0  0  0  0  0  0  0  0  0
    1.9231    2.2793   -0.6544 Br  0  0  0  0  0  0  0  0  0  0  0  0
    2.9161   -0.0983    0.0000 H   0  0  0  0  0  0  0  0  0  0  0  0
    2.4070   -1.6475    0.4536 H   0  0  0  0  0  0  0  0  0  0  0  0
    0.0724   -2.2983    0.3843 H   0  0  0  0  0  0  0  0  0  0  0  0
   -2.2673   -1.5410    0.4211 H   0  0  0  0  0  0  0  0  0  0  0  0
   -0.9985    2.4752   -0.4676 H   0  0  0  0  0  0  0  0  0  0  0  0
  1  2  1  0
  2  3  2  0
  3  4  1  0
  4  5  2  0
  5  6  1  0
  5  7  1  0
  7  8  2  0
  8  9  1  0
  8  2  1  0
  1 10  1  0
  1 11  1  0
  3 12  1  0
  4 13  1  0
  7 14  1  0
M  END
