
     RDKit          3D

 18 18  0  0  0  0  0  0  0  0999 V2000
   -0.6486    1.8978    0.5252 N   0  0  0  0  0  0  0  0  0  0  0  0
    0.2120    0.8112    0.2935 C   0  0  0  0  0  0  0  0  0  0  0  0
    1.5025    1.0020   -0.2369 C   0  0  0  0  0  0  0  0  0  0  0  0
    2.1932    2.7527   -0.5173 Br  0  0  0  0  0  0  0  0  0  0  0  0
    2.3320   -0.0810   -0.5425 C   0  0  0  0  0  0  0  0  0  0  0  0
    1.8652   -1.3769   -0.3457 C   0  0  0  0  0  0  0  0  0  0  0  0
    2.9858   -2.8474   -0.7386 Br  0  0  0  0  0  0  0  0  0  0  0  0
    0.5752   -1.5992    0.1260 C   0  0  0  0  0  0  0  0  0  0  0  0
   -0.2575   -0.5100    0.3988 C   0  0  0  0  0  0  0  0  0  0  0  0
   -1.5168   -0.8108    0.8459 O   0  0  0  0  0  0  0  0  0  0  0  0
   -2.5430   -0.3947   -0.0530 C   0  0  0  0  0  0  0  0  0  0  0  0
   -3.5188   -1.3333   -0.0350 F   0  0  0  0  0  0  0  0  0  0  0  0
   -2.1172   -0.2680   -1.3273 F   0  0  0  0  0  0  0  0  0  0  0  0
   -3.0867    0.7657    0.3734 F   0  0  0  0  0  0  0  0  0  0  0  0
   -0.1568    2.7788    0.6621 H   0  0  0  0  0  0  0  0  0  0  0  0
   -1.3586    1.7376    1.2359 H   0  0  0  0  0  0  0  0  0  0  0  0
    3.3337    0.0871   -0.9295 H   0  0  0  0  0  0  0  0  0  0  0  0
    0.2045   -2.6116    0.2650 H   0  0  0  0  0  0  0  0  0  0  0  0
  1  2  1  0
  2  3  2  0
  3  4  1  0
  3  5  1  0
  5  6  2  0
  6  7  1  0
  6  8  1  0
  8  9  2  0
  9 10  1  0
 10 11  1  0
 11 12  1  0
 11 13  1  0
 11 14  1  0
  9  2  1  0
  1 15  1  0
  1 16  1  0
  5 17  1  0
  8 18  1  0
M  END
