
     RDKit          3D

 11 11  0  0  0  0  0  0  0  0999 V2000
   -1.8263    2.4086    0.0624 Br  0  0  0  0  0  0  0  0  0  0  0  0
   -0.7163    0.8791    0.0213 C   0  0  0  0  0  0  0  0  0  0  0  0
   -1.2881   -0.3839   -0.0577 C   0  0  0  0  0  0  0  0  0  0  0  0
   -0.4350   -1.4709   -0.0850 C   0  0  0  0  0  0  0  0  0  0  0  0
    0.9098   -1.3679   -0.0393 N   0  0  0  0  0  0  0  0  0  0  0  0
    1.4307   -0.1232    0.0373 C   0  0  0  0  0  0  0  0  0  0  0  0
    3.3196    0.0347    0.1021 Br  0  0  0  0  0  0  0  0  0  0  0  0
    0.6637    1.0278    0.0703 C   0  0  0  0  0  0  0  0  0  0  0  0
   -2.3620   -0.5260   -0.0971 H   0  0  0  0  0  0  0  0  0  0  0  0
   -0.8200   -2.4853   -0.1462 H   0  0  0  0  0  0  0  0  0  0  0  0
    1.1239    2.0070    0.1320 H   0  0  0  0  0  0  0  0  0  0  0  0
  1  2  1  0
  2  3  2  0
  3  4  1  0
  4  5  2  0
  5  6  1  0
  6  7  1  0
  6  8  2  0
  8  2  1  0
  3  9  1  0
  4 10  1  0
  8 11  1  0
M  END
