
     RDKit          3D

 18 18  0  0  0  0  0  0  0  0999 V2000
    0.4027    2.1409   -0.0225 N   0  0  0  0  0  0  0  0  0  0  0  0
   -0.3282    0.9361    0.0646 C   0  0  0  0  0  0  0  0  0  0  0  0
   -1.3825    0.7649    0.9767 C   0  0  0  0  0  0  0  0  0  0  0  0
   -2.0073    2.2187    2.0292 Br  0  0  0  0  0  0  0  0  0  0  0  0
   -2.0224   -0.4710    1.1160 C   0  0  0  0  0  0  0  0  0  0  0  0
   -1.5871   -1.5607    0.3633 C   0  0  0  0  0  0  0  0  0  0  0  0
   -2.4575   -3.2291    0.5423 Br  0  0  0  0  0  0  0  0  0  0  0  0
   -0.5085   -1.4359   -0.5068 C   0  0  0  0  0  0  0  0  0  0  0  0
    0.1334   -0.2027   -0.6180 C   0  0  0  0  0  0  0  0  0  0  0  0
    1.2080   -0.0971   -1.4659 O   0  0  0  0  0  0  0  0  0  0  0  0
    2.4117   -0.2646   -0.7232 C   0  0  0  0  0  0  0  0  0  0  0  0
    2.6077   -1.5924   -0.5197 F   0  0  0  0  0  0  0  0  0  0  0  0
    3.4302    0.1592   -1.5151 F   0  0  0  0  0  0  0  0  0  0  0  0
   -0.1461    2.9464    0.2756 H   0  0  0  0  0  0  0  0  0  0  0  0
    0.8000    2.2799   -0.9511 H   0  0  0  0  0  0  0  0  0  0  0  0
   -2.8532   -0.5827    1.8081 H   0  0  0  0  0  0  0  0  0  0  0  0
   -0.1522   -2.2863   -1.0824 H   0  0  0  0  0  0  0  0  0  0  0  0
    2.4511    0.2766    0.2288 H   0  0  0  0  0  0  0  0  0  0  0  0
  1  2  1  0
  2  3  2  0
  3  4  1  0
  3  5  1  0
  5  6  2  0
  6  7  1  0
  6  8  1  0
  8  9  2  0
  9 10  1  0
 10 11  1  0
 11 12  1  0
 11 13  1  0
  9  2  1  0
  1 14  1  0
  1 15  1  0
  5 16  1  0
  8 17  1  0
 11 18  1  0
M  END
