
     RDKit          3D

 14 14  0  0  0  0  0  0  0  0999 V2000
   -2.3329   -0.1903    0.4131 N   0  0  0  0  0  0  0  0  0  0  0  0
   -0.9680   -0.0756    0.1059 C   0  0  0  0  0  0  0  0  0  0  0  0
   -0.2415   -1.2358   -0.1826 C   0  0  0  0  0  0  0  0  0  0  0  0
    1.1393   -1.1809   -0.3698 C   0  0  0  0  0  0  0  0  0  0  0  0
    1.7876   -2.3161   -0.6691 F   0  0  0  0  0  0  0  0  0  0  0  0
    1.8301    0.0185   -0.2393 C   0  0  0  0  0  0  0  0  0  0  0  0
    3.7024    0.0765   -0.4984 Br  0  0  0  0  0  0  0  0  0  0  0  0
    1.1273    1.1711    0.0965 C   0  0  0  0  0  0  0  0  0  0  0  0
    1.7848    2.3334    0.2431 F   0  0  0  0  0  0  0  0  0  0  0  0
   -0.2579    1.1261    0.2873 C   0  0  0  0  0  0  0  0  0  0  0  0
   -1.1727    2.7242    0.7649 Br  0  0  0  0  0  0  0  0  0  0  0  0
   -2.8219   -0.9451   -0.0587 H   0  0  0  0  0  0  0  0  0  0  0  0
   -2.8385    0.6929    0.3689 H   0  0  0  0  0  0  0  0  0  0  0  0
   -0.7384   -2.1988   -0.2617 H   0  0  0  0  0  0  0  0  0  0  0  0
  1  2  1  0
  2  3  2  0
  3  4  1  0
  4  5  1  0
  4  6  2  0
  6  7  1  0
  6  8  1  0
  8  9  1  0
  8 10  2  0
 10 11  1  0
 10  2  1  0
  1 12  1  0
  1 13  1  0
  3 14  1  0
M  END
