
     RDKit          3D

 13 13  0  0  0  0  0  0  0  0999 V2000
    2.7180   -0.6253    0.8302 O   0  0  0  0  0  0  0  0  0  0  0  0
    2.1339   -0.0347   -0.0857 N   0  0  0  0  0  4  0  0  0  0  0  0
    2.6644    0.6050   -1.0013 O   0  0  0  0  0  1  0  0  0  0  0  0
    0.7061   -0.0929   -0.0830 C   0  0  0  0  0  0  0  0  0  0  0  0
    0.0648   -1.1213   -0.7551 C   0  0  0  0  0  0  0  0  0  0  0  0
    0.9965   -2.4866   -1.6995 Br  0  0  0  0  0  0  0  0  0  0  0  0
   -1.2892   -1.2222   -0.7833 N   0  0  0  0  0  0  0  0  0  0  0  0
   -2.0012   -0.2757   -0.1267 C   0  0  0  0  0  0  0  0  0  0  0  0
   -1.4224    0.7747    0.5620 C   0  0  0  0  0  0  0  0  0  0  0  0
   -2.2037    1.6671    1.1843 F   0  0  0  0  0  0  0  0  0  0  0  0
   -0.0367    0.8760    0.5895 C   0  0  0  0  0  0  0  0  0  0  0  0
    0.7507    2.3198    1.5363 Br  0  0  0  0  0  0  0  0  0  0  0  0
   -3.0814   -0.3838   -0.1677 H   0  0  0  0  0  0  0  0  0  0  0  0
  1  2  2  0
  2  3  1  0
  2  4  1  0
  4  5  2  0
  5  6  1  0
  5  7  1  0
  7  8  2  0
  8  9  1  0
  9 10  1  0
  9 11  2  0
 11 12  1  0
 11  4  1  0
  8 13  1  0
M  CHG  2   2   1   3  -1
M  END
