
     RDKit          3D

 20 20  0  0  0  0  0  0  0  0999 V2000
    2.7756   -0.5825    0.3243 C   0  0  0  0  0  0  0  0  0  0  0  0
    1.3261   -0.2200    0.1348 C   0  0  0  0  0  0  0  0  0  0  0  0
    1.0104    1.1059   -0.1933 C   0  0  0  0  0  0  0  0  0  0  0  0
   -0.3128    1.5277   -0.3363 C   0  0  0  0  0  0  0  0  0  0  0  0
   -0.5501    2.8484   -0.7621 N   0  0  0  0  0  0  0  0  0  0  0  0
   -1.3428    0.5672   -0.2541 C   0  0  0  0  0  0  0  0  0  0  0  0
   -3.1437    1.1850   -0.4890 Br  0  0  0  0  0  0  0  0  0  0  0  0
   -1.0671   -0.7885    0.0395 C   0  0  0  0  0  0  0  0  0  0  0  0
   -2.1778   -1.8036    0.1634 C   0  0  0  0  0  0  0  0  0  0  0  0
    0.2807   -1.1563    0.2703 C   0  0  0  0  0  0  0  0  0  0  0  0
    0.7180   -2.9477    0.7938 Br  0  0  0  0  0  0  0  0  0  0  0  0
    3.0717   -1.3651   -0.3815 H   0  0  0  0  0  0  0  0  0  0  0  0
    3.4318    0.2762    0.1444 H   0  0  0  0  0  0  0  0  0  0  0  0
    2.9566   -0.9172    1.3507 H   0  0  0  0  0  0  0  0  0  0  0  0
    1.8121    1.8289   -0.3314 H   0  0  0  0  0  0  0  0  0  0  0  0
   -1.5089    3.1477   -0.5970 H   0  0  0  0  0  0  0  0  0  0  0  0
    0.1334    3.5232   -0.4350 H   0  0  0  0  0  0  0  0  0  0  0  0
   -3.0500   -1.5517   -0.4448 H   0  0  0  0  0  0  0  0  0  0  0  0
   -2.4902   -1.8904    1.2087 H   0  0  0  0  0  0  0  0  0  0  0  0
   -1.8730   -2.7873   -0.2054 H   0  0  0  0  0  0  0  0  0  0  0  0
  1  2  1  0
  2  3  2  0
  3  4  1  0
  4  5  1  0
  4  6  2  0
  6  7  1  0
  6  8  1  0
  8  9  1  0
  8 10  2  0
 10 11  1  0
 10  2  1  0
  1 12  1  0
  1 13  1  0
  1 14  1  0
  3 15  1  0
  5 16  1  0
  5 17  1  0
  9 18  1  0
  9 19  1  0
  9 20  1  0
M  END
