
     RDKit          3D

 11 11  0  0  0  0  0  0  0  0999 V2000
   -3.0079   -0.2397    0.0031 Cl  0  0  0  0  0  0  0  0  0  0  0  0
   -1.2874   -0.1980   -0.0002 C   0  0  0  0  0  0  0  0  0  0  0  0
   -0.5871   -1.3945   -0.0205 C   0  0  0  0  0  0  0  0  0  0  0  0
    0.7645   -1.4853   -0.0250 N   0  0  0  0  0  0  0  0  0  0  0  0
    1.4557   -0.3260   -0.0084 C   0  0  0  0  0  0  0  0  0  0  0  0
    3.3483   -0.4299   -0.0144 Br  0  0  0  0  0  0  0  0  0  0  0  0
    0.8534    0.9208    0.0125 C   0  0  0  0  0  0  0  0  0  0  0  0
   -0.5410    0.9789    0.0166 C   0  0  0  0  0  0  0  0  0  0  0  0
   -1.3457    2.6986    0.0453 Br  0  0  0  0  0  0  0  0  0  0  0  0
   -1.1053   -2.3502   -0.0343 H   0  0  0  0  0  0  0  0  0  0  0  0
    1.4526    1.8251    0.0253 H   0  0  0  0  0  0  0  0  0  0  0  0
  1  2  1  0
  2  3  2  0
  3  4  1  0
  4  5  2  0
  5  6  1  0
  5  7  1  0
  7  8  2  0
  8  9  1  0
  8  2  1  0
  3 10  1  0
  7 11  1  0
M  END
