
     RDKit          3D

 18 18  0  0  0  0  0  0  0  0999 V2000
   -0.7444    1.5298   -1.3269 N   0  0  0  0  0  0  0  0  0  0  0  0
   -0.4188    0.8068   -0.1646 C   0  0  0  0  0  0  0  0  0  0  0  0
   -0.9787    1.1509    1.0818 C   0  0  0  0  0  0  0  0  0  0  0  0
   -2.3801    2.4335    1.2001 Br  0  0  0  0  0  0  0  0  0  0  0  0
   -0.5409    0.5567    2.2695 C   0  0  0  0  0  0  0  0  0  0  0  0
    0.5038   -0.3612    2.2306 C   0  0  0  0  0  0  0  0  0  0  0  0
    1.1186   -1.1511    3.8340 Br  0  0  0  0  0  0  0  0  0  0  0  0
    1.1105   -0.6903    1.0227 C   0  0  0  0  0  0  0  0  0  0  0  0
    0.6449   -0.1146   -0.1641 C   0  0  0  0  0  0  0  0  0  0  0  0
    1.3311   -0.4349   -1.3084 O   0  0  0  0  0  0  0  0  0  0  0  0
    0.5880   -1.3235   -2.1334 C   0  0  0  0  0  0  0  0  0  0  0  0
   -0.3457   -0.6471   -2.8397 F   0  0  0  0  0  0  0  0  0  0  0  0
   -0.0112   -2.2987   -1.4168 F   0  0  0  0  0  0  0  0  0  0  0  0
    1.4335   -1.9059   -3.0120 F   0  0  0  0  0  0  0  0  0  0  0  0
   -0.5975    1.0372   -2.2042 H   0  0  0  0  0  0  0  0  0  0  0  0
   -1.6593    1.9738   -1.2824 H   0  0  0  0  0  0  0  0  0  0  0  0
   -0.9997    0.8237    3.2180 H   0  0  0  0  0  0  0  0  0  0  0  0
    1.9460   -1.3851    0.9957 H   0  0  0  0  0  0  0  0  0  0  0  0
  1  2  1  0
  2  3  2  0
  3  4  1  0
  3  5  1  0
  5  6  2  0
  6  7  1  0
  6  8  1  0
  8  9  2  0
  9 10  1  0
 10 11  1  0
 11 12  1  0
 11 13  1  0
 11 14  1  0
  9  2  1  0
  1 15  1  0
  1 16  1  0
  5 17  1  0
  8 18  1  0
M  END
