
     RDKit          3D

 18 18  0  0  0  0  0  0  0  0999 V2000
    3.7310    0.9340   -0.1263 F   0  0  0  0  0  0  0  0  0  0  0  0
    2.6332    0.1753    0.0790 C   0  0  0  0  0  0  0  0  0  0  0  0
    2.2269    0.3470    1.3539 F   0  0  0  0  0  0  0  0  0  0  0  0
    2.9732   -1.1186   -0.1085 F   0  0  0  0  0  0  0  0  0  0  0  0
    1.6283    0.5632   -0.8549 O   0  0  0  0  0  0  0  0  0  0  0  0
    0.4250   -0.0231   -0.5498 C   0  0  0  0  0  0  0  0  0  0  0  0
    0.1683   -1.3207   -0.9987 C   0  0  0  0  0  0  0  0  0  0  0  0
   -1.0618   -1.9077   -0.7157 C   0  0  0  0  0  0  0  0  0  0  0  0
   -1.4144   -3.6691   -1.3034 Br  0  0  0  0  0  0  0  0  0  0  0  0
   -2.0347   -1.2109   -0.0018 C   0  0  0  0  0  0  0  0  0  0  0  0
   -1.7791    0.0981    0.4217 C   0  0  0  0  0  0  0  0  0  0  0  0
   -3.1457    0.9914    1.3957 Br  0  0  0  0  0  0  0  0  0  0  0  0
   -0.5537    0.7288    0.1326 C   0  0  0  0  0  0  0  0  0  0  0  0
   -0.2640    2.0444    0.5603 N   0  0  0  0  0  0  0  0  0  0  0  0
   -0.5306    2.8438   -0.2593 C   0  0  0  0  0  0  0  0  0  0  0  0
   -0.9364    4.0722   -1.5102 S   0  0  0  0  0  0  0  0  0  0  0  0
    0.9233   -1.8650   -1.5612 H   0  0  0  0  0  0  0  0  0  0  0  0
   -2.9887   -1.6827    0.2224 H   0  0  0  0  0  0  0  0  0  0  0  0
  1  2  1  0
  2  3  1  0
  2  4  1  0
  2  5  1  0
  5  6  1  0
  6  7  2  0
  7  8  1  0
  8  9  1  0
  8 10  2  0
 10 11  1  0
 11 12  1  0
 11 13  2  0
 13 14  1  0
 14 15  2  0
 15 16  2  0
 13  6  1  0
  7 17  1  0
 10 18  1  0
M  END
