
     RDKit          3D

 17 17  0  0  0  0  0  0  0  0999 V2000
   -1.4536   -1.5376   -0.6229 C   0  0  0  0  0  0  0  0  0  0  0  0
   -0.3111   -0.6380   -0.2312 C   0  0  0  0  0  0  0  0  0  0  0  0
    0.9936   -1.1638   -0.2285 C   0  0  0  0  0  0  0  0  0  0  0  0
    2.0740   -0.3756    0.1653 C   0  0  0  0  0  0  0  0  0  0  0  0
    3.8137   -1.1187    0.1589 Br  0  0  0  0  0  0  0  0  0  0  0  0
    1.8664    0.9374    0.5698 C   0  0  0  0  0  0  0  0  0  0  0  0
    2.9083    1.6878    0.9649 F   0  0  0  0  0  0  0  0  0  0  0  0
    0.5783    1.4743    0.5686 C   0  0  0  0  0  0  0  0  0  0  0  0
    0.3397    3.2747    1.1427 Br  0  0  0  0  0  0  0  0  0  0  0  0
   -0.5236    0.7116    0.1255 C   0  0  0  0  0  0  0  0  0  0  0  0
   -1.8359    1.2124    0.2368 N   0  0  0  0  0  0  0  0  0  0  0  0
   -1.9293   -1.1681   -1.5369 H   0  0  0  0  0  0  0  0  0  0  0  0
   -1.1135   -2.5605   -0.8167 H   0  0  0  0  0  0  0  0  0  0  0  0
   -2.1939   -1.5870    0.1821 H   0  0  0  0  0  0  0  0  0  0  0  0
    1.1616   -2.1982   -0.5228 H   0  0  0  0  0  0  0  0  0  0  0  0
   -1.8736    2.2297    0.2647 H   0  0  0  0  0  0  0  0  0  0  0  0
   -2.5011    0.8197   -0.4204 H   0  0  0  0  0  0  0  0  0  0  0  0
  1  2  1  0
  2  3  2  0
  3  4  1  0
  4  5  1  0
  4  6  2  0
  6  7  1  0
  6  8  1  0
  8  9  1  0
  8 10  2  0
 10 11  1  0
 10  2  1  0
  1 12  1  0
  1 13  1  0
  1 14  1  0
  3 15  1  0
 11 16  1  0
 11 17  1  0
M  END
