
     RDKit          3D

 15 15  0  0  0  0  0  0  0  0999 V2000
   -2.8147    1.4621   -0.9948 O   0  0  0  0  0  0  0  0  0  0  0  0
   -2.2362    0.4160   -0.7345 C   0  0  0  0  0  0  0  0  0  0  0  0
   -0.8222    0.3167   -0.2824 C   0  0  0  0  0  0  0  0  0  0  0  0
   -0.3169   -0.9722   -0.0266 C   0  0  0  0  0  0  0  0  0  0  0  0
   -1.1205   -2.0693   -0.1968 O   0  0  0  0  0  0  0  0  0  0  0  0
    0.9980   -1.1648    0.4014 C   0  0  0  0  0  0  0  0  0  0  0  0
    1.8239   -0.0601    0.5781 C   0  0  0  0  0  0  0  0  0  0  0  0
    3.6064   -0.3065    1.1571 Br  0  0  0  0  0  0  0  0  0  0  0  0
    1.3485    1.2252    0.3319 C   0  0  0  0  0  0  0  0  0  0  0  0
    0.0268    1.4204   -0.0984 C   0  0  0  0  0  0  0  0  0  0  0  0
   -0.4712    3.2317   -0.3912 Br  0  0  0  0  0  0  0  0  0  0  0  0
   -2.7829   -0.5360   -0.8350 H   0  0  0  0  0  0  0  0  0  0  0  0
   -0.6281   -2.8808    0.0191 H   0  0  0  0  0  0  0  0  0  0  0  0
    1.3818   -2.1620    0.5971 H   0  0  0  0  0  0  0  0  0  0  0  0
    2.0075    2.0796    0.4749 H   0  0  0  0  0  0  0  0  0  0  0  0
  1  2  2  0
  2  3  1  0
  3  4  2  0
  4  5  1  0
  4  6  1  0
  6  7  2  0
  7  8  1  0
  7  9  1  0
  9 10  2  0
 10 11  1  0
 10  3  1  0
  2 12  1  0
  5 13  1  0
  6 14  1  0
  9 15  1  0
M  END
