
     RDKit          3D

 21 21  0  0  0  0  0  0  0  0999 V2000
   -0.1776    2.9120   -0.2255 C   0  0  0  0  0  0  0  0  0  0  0  0
   -0.1119    1.4108   -0.1192 C   0  0  0  0  0  0  0  0  0  0  0  0
    1.1437    0.7944   -0.1951 C   0  0  0  0  0  0  0  0  0  0  0  0
    1.2874   -0.5943   -0.0797 C   0  0  0  0  0  0  0  0  0  0  0  0
    2.6754   -1.1761   -0.1450 C   0  0  0  0  0  0  0  0  0  0  0  0
    0.1357   -1.3856    0.1029 C   0  0  0  0  0  0  0  0  0  0  0  0
    0.3549   -3.2767    0.3309 Br  0  0  0  0  0  0  0  0  0  0  0  0
   -1.1548   -0.8031    0.1444 C   0  0  0  0  0  0  0  0  0  0  0  0
   -2.3855   -1.6581    0.3388 C   0  0  0  0  0  0  0  0  0  0  0  0
   -1.2553    0.6075    0.0637 C   0  0  0  0  0  0  0  0  0  0  0  0
   -2.9584    1.4709    0.2374 Br  0  0  0  0  0  0  0  0  0  0  0  0
    0.8127    3.3467   -0.4006 H   0  0  0  0  0  0  0  0  0  0  0  0
   -0.8105    3.2109   -1.0672 H   0  0  0  0  0  0  0  0  0  0  0  0
   -0.5613    3.3460    0.7033 H   0  0  0  0  0  0  0  0  0  0  0  0
    2.0313    1.4111   -0.3341 H   0  0  0  0  0  0  0  0  0  0  0  0
    2.9331   -1.6611    0.8018 H   0  0  0  0  0  0  0  0  0  0  0  0
    3.4283   -0.4012   -0.3268 H   0  0  0  0  0  0  0  0  0  0  0  0
    2.7530   -1.8953   -0.9667 H   0  0  0  0  0  0  0  0  0  0  0  0
   -2.5910   -1.7806    1.4068 H   0  0  0  0  0  0  0  0  0  0  0  0
   -2.2823   -2.6446   -0.1211 H   0  0  0  0  0  0  0  0  0  0  0  0
   -3.2671   -1.2335   -0.1488 H   0  0  0  0  0  0  0  0  0  0  0  0
  1  2  1  0
  2  3  2  0
  3  4  1  0
  4  5  1  0
  4  6  2  0
  6  7  1  0
  6  8  1  0
  8  9  1  0
  8 10  2  0
 10 11  1  0
 10  2  1  0
  1 12  1  0
  1 13  1  0
  1 14  1  0
  3 15  1  0
  5 16  1  0
  5 17  1  0
  5 18  1  0
  9 19  1  0
  9 20  1  0
  9 21  1  0
M  END
