
     RDKit          3D

 14 14  0  0  0  0  0  0  0  0999 V2000
   -2.3441   -0.2556    0.2065 N   0  0  0  0  0  0  0  0  0  0  0  0
   -0.9484   -0.0753    0.1411 C   0  0  0  0  0  0  0  0  0  0  0  0
   -0.0970   -1.0869    0.6169 C   0  0  0  0  0  0  0  0  0  0  0  0
   -0.6249   -2.1417    1.2580 F   0  0  0  0  0  0  0  0  0  0  0  0
    1.2854   -1.0268    0.4643 C   0  0  0  0  0  0  0  0  0  0  0  0
    1.8440    0.0532   -0.2111 C   0  0  0  0  0  0  0  0  0  0  0  0
    3.7215    0.1411   -0.4219 Br  0  0  0  0  0  0  0  0  0  0  0  0
    1.0235    1.0525   -0.7338 C   0  0  0  0  0  0  0  0  0  0  0  0
    1.5712    2.0841   -1.3969 F   0  0  0  0  0  0  0  0  0  0  0  0
   -0.3646    0.9822   -0.5758 C   0  0  0  0  0  0  0  0  0  0  0  0
   -1.4457    2.3571   -1.3235 Br  0  0  0  0  0  0  0  0  0  0  0  0
   -2.8784    0.6075    0.1438 H   0  0  0  0  0  0  0  0  0  0  0  0
   -2.6418   -0.8652    0.9655 H   0  0  0  0  0  0  0  0  0  0  0  0
    1.8994   -1.8264    0.8667 H   0  0  0  0  0  0  0  0  0  0  0  0
  1  2  1  0
  2  3  2  0
  3  4  1  0
  3  5  1  0
  5  6  2  0
  6  7  1  0
  6  8  1  0
  8  9  1  0
  8 10  2  0
 10 11  1  0
 10  2  1  0
  1 12  1  0
  1 13  1  0
  5 14  1  0
M  END
