
     RDKit          3D

 16 17  0  0  0  0  0  0  0  0999 V2000
    3.8829   -2.3376   -0.1852 Br  0  0  0  0  0  0  0  0  0  0  0  0
    2.4284   -1.1203   -0.1243 C   0  0  0  0  0  0  0  0  0  0  0  0
    2.7152    0.1814   -0.1745 N   0  0  0  0  0  0  0  0  0  0  0  0
    1.6599    1.0147   -0.1291 C   0  0  0  0  0  0  0  0  0  0  0  0
    2.1164    2.8684   -0.2035 Br  0  0  0  0  0  0  0  0  0  0  0  0
    0.3246    0.6002   -0.0352 C   0  0  0  0  0  0  0  0  0  0  0  0
   -0.8268    1.4337    0.0163 C   0  0  0  0  0  0  0  0  0  0  0  0
   -2.1033    0.8838    0.1098 C   0  0  0  0  0  0  0  0  0  0  0  0
   -2.2486   -0.4950    0.1530 C   0  0  0  0  0  0  0  0  0  0  0  0
   -1.1168   -1.3125    0.1024 C   0  0  0  0  0  0  0  0  0  0  0  0
    0.1670   -0.7891    0.0091 C   0  0  0  0  0  0  0  0  0  0  0  0
    1.1963   -1.6399   -0.0343 N   0  0  0  0  0  0  0  0  0  0  0  0
   -0.7367    2.5171   -0.0162 H   0  0  0  0  0  0  0  0  0  0  0  0
   -2.9776    1.5293    0.1486 H   0  0  0  0  0  0  0  0  0  0  0  0
   -3.2377   -0.9409    0.2260 H   0  0  0  0  0  0  0  0  0  0  0  0
   -1.2431   -2.3933    0.1371 H   0  0  0  0  0  0  0  0  0  0  0  0
  1  2  1  0
  2  3  2  0
  3  4  1  0
  4  5  1  0
  4  6  2  0
  6  7  1  0
  7  8  2  0
  8  9  1  0
  9 10  2  0
 10 11  1  0
 11 12  2  0
 12  2  1  0
 11  6  1  0
  7 13  1  0
  8 14  1  0
  9 15  1  0
 10 16  1  0
M  END
