
     RDKit          3D

 45 45  0  0  0  0  0  0  0  0999 V2000
   -6.8570   -0.1328    2.2652 C   0  0  0  0  0  0  0  0  0  0  0  0
   -5.5079   -0.2129    1.5670 C   0  0  0  0  0  0  0  0  0  0  0  0
   -5.2081    1.0670    0.7857 C   0  0  0  0  0  0  0  0  0  0  0  0
   -3.8122    1.0806    0.1542 C   0  0  0  0  0  0  0  0  0  0  0  0
   -3.6294    0.0170   -0.9317 C   0  0  0  0  0  0  0  0  0  0  0  0
   -2.3228    0.1717   -1.7168 C   0  0  0  0  0  0  0  0  0  0  0  0
   -1.0720   -0.0523   -0.8641 C   0  0  0  0  0  0  0  0  0  0  0  0
    0.1973    0.0027   -1.7174 C   0  0  0  0  0  0  0  0  0  0  0  0
    1.4499   -0.2176   -0.8661 C   0  0  0  0  0  0  0  0  0  0  0  0
    2.7179   -0.1589   -1.7210 C   0  0  0  0  0  0  0  0  0  0  0  0
    3.9919   -0.4887   -0.9383 C   0  0  0  0  0  0  0  0  0  0  0  0
    4.3385    0.5562    0.1264 C   0  0  0  0  0  0  0  0  0  0  0  0
    5.6435    0.2543    0.8118 C   0  0  0  0  0  0  0  0  0  0  0  0
    6.9066    0.8022    0.3868 C   0  0  0  0  0  0  0  0  0  0  0  0
    7.9451    0.3732    1.1746 C   0  0  0  0  0  0  0  0  0  0  0  0
    9.7622    0.8970    0.9034 Br  0  0  0  0  0  0  0  0  0  0  0  0
    7.4545   -0.6692    2.4128 S   0  0  0  0  0  0  0  0  0  0  0  0
    5.8340   -0.5624    1.9107 C   0  0  0  0  0  0  0  0  0  0  0  0
    4.4431   -1.5167    2.8245 Br  0  0  0  0  0  0  0  0  0  0  0  0
   -6.8816    0.6974    2.9782 H   0  0  0  0  0  0  0  0  0  0  0  0
   -7.0545   -1.0583    2.8152 H   0  0  0  0  0  0  0  0  0  0  0  0
   -7.6652    0.0114    1.5411 H   0  0  0  0  0  0  0  0  0  0  0  0
   -4.7258   -0.3850    2.3154 H   0  0  0  0  0  0  0  0  0  0  0  0
   -5.5128   -1.0773    0.8946 H   0  0  0  0  0  0  0  0  0  0  0  0
   -5.9660    1.2117    0.0062 H   0  0  0  0  0  0  0  0  0  0  0  0
   -5.2849    1.9267    1.4630 H   0  0  0  0  0  0  0  0  0  0  0  0
   -3.6447    2.0726   -0.2829 H   0  0  0  0  0  0  0  0  0  0  0  0
   -3.0620    0.9493    0.9423 H   0  0  0  0  0  0  0  0  0  0  0  0
   -3.6642   -0.9850   -0.4891 H   0  0  0  0  0  0  0  0  0  0  0  0
   -4.4636    0.0809   -1.6411 H   0  0  0  0  0  0  0  0  0  0  0  0
   -2.2850    1.1672   -2.1758 H   0  0  0  0  0  0  0  0  0  0  0  0
   -2.3308   -0.5544   -2.5392 H   0  0  0  0  0  0  0  0  0  0  0  0
   -1.1366   -1.0267   -0.3650 H   0  0  0  0  0  0  0  0  0  0  0  0
   -1.0099    0.7113   -0.0807 H   0  0  0  0  0  0  0  0  0  0  0  0
    0.1464   -0.7630   -2.5010 H   0  0  0  0  0  0  0  0  0  0  0  0
    0.2607    0.9760   -2.2192 H   0  0  0  0  0  0  0  0  0  0  0  0
    1.3874   -1.1921   -0.3670 H   0  0  0  0  0  0  0  0  0  0  0  0
    1.4885    0.5473   -0.0827 H   0  0  0  0  0  0  0  0  0  0  0  0
    2.6275   -0.8786   -2.5441 H   0  0  0  0  0  0  0  0  0  0  0  0
    2.8123    0.8334   -2.1784 H   0  0  0  0  0  0  0  0  0  0  0  0
    4.8224   -0.5634   -1.6525 H   0  0  0  0  0  0  0  0  0  0  0  0
    3.8932   -1.4801   -0.4792 H   0  0  0  0  0  0  0  0  0  0  0  0
    4.4041    1.5458   -0.3440 H   0  0  0  0  0  0  0  0  0  0  0  0
    3.5416    0.6294    0.8740 H   0  0  0  0  0  0  0  0  0  0  0  0
    7.0282    1.4732   -0.4555 H   0  0  0  0  0  0  0  0  0  0  0  0
  1  2  1  0
  2  3  1  0
  3  4  1  0
  4  5  1  0
  5  6  1  0
  6  7  1  0
  7  8  1  0
  8  9  1  0
  9 10  1  0
 10 11  1  0
 11 12  1  0
 12 13  1  0
 13 14  1  0
 14 15  2  0
 15 16  1  0
 15 17  1  0
 17 18  1  0
 18 19  1  0
 18 13  2  0
  1 20  1  0
  1 21  1  0
  1 22  1  0
  2 23  1  0
  2 24  1  0
  3 25  1  0
  3 26  1  0
  4 27  1  0
  4 28  1  0
  5 29  1  0
  5 30  1  0
  6 31  1  0
  6 32  1  0
  7 33  1  0
  7 34  1  0
  8 35  1  0
  8 36  1  0
  9 37  1  0
  9 38  1  0
 10 39  1  0
 10 40  1  0
 11 41  1  0
 11 42  1  0
 12 43  1  0
 12 44  1  0
 14 45  1  0
M  END
