
     RDKit          3D

 12 12  0  0  0  0  0  0  0  0999 V2000
   -2.1941   -2.1620    0.0170 Cl  0  0  0  0  0  0  0  0  0  0  0  0
   -0.9884   -0.9241    0.0069 C   0  0  0  0  0  0  0  0  0  0  0  0
    0.3501   -1.3286    0.0219 C   0  0  0  0  0  0  0  0  0  0  0  0
    1.3628   -0.3708    0.0146 C   0  0  0  0  0  0  0  0  0  0  0  0
    3.1716   -0.9192    0.0348 Br  0  0  0  0  0  0  0  0  0  0  0  0
    1.0541    0.9878   -0.0074 C   0  0  0  0  0  0  0  0  0  0  0  0
   -0.2820    1.3935   -0.0224 C   0  0  0  0  0  0  0  0  0  0  0  0
   -1.3061    0.4398   -0.0152 C   0  0  0  0  0  0  0  0  0  0  0  0
   -3.0946    1.0776   -0.0366 Br  0  0  0  0  0  0  0  0  0  0  0  0
    0.5981   -2.3870    0.0391 H   0  0  0  0  0  0  0  0  0  0  0  0
    1.8426    1.7369   -0.0131 H   0  0  0  0  0  0  0  0  0  0  0  0
   -0.5142    2.4561   -0.0395 H   0  0  0  0  0  0  0  0  0  0  0  0
  1  2  1  0
  2  3  2  0
  3  4  1  0
  4  5  1  0
  4  6  2  0
  6  7  1  0
  7  8  2  0
  8  9  1  0
  8  2  1  0
  3 10  1  0
  6 11  1  0
  7 12  1  0
M  END
