
     RDKit          3D

 17 17  0  0  0  0  0  0  0  0999 V2000
   -1.9347   -0.9677    0.2760 C   0  0  0  0  0  0  0  0  0  0  0  0
   -0.7108   -0.0880    0.2663 C   0  0  0  0  0  0  0  0  0  0  0  0
   -0.8211    1.2973    0.4836 C   0  0  0  0  0  0  0  0  0  0  0  0
   -2.4962    2.1413    0.7994 Br  0  0  0  0  0  0  0  0  0  0  0  0
    0.3103    2.1237    0.4765 C   0  0  0  0  0  0  0  0  0  0  0  0
    1.5793    1.5880    0.2526 C   0  0  0  0  0  0  0  0  0  0  0  0
    1.7280    0.2194    0.0334 C   0  0  0  0  0  0  0  0  0  0  0  0
    3.4879   -0.4298   -0.2633 Br  0  0  0  0  0  0  0  0  0  0  0  0
    0.5890   -0.5974    0.0427 C   0  0  0  0  0  0  0  0  0  0  0  0
    0.7623   -2.0140   -0.1863 N   0  0  0  0  0  4  0  0  0  0  0  0
    0.9378   -2.7246    0.8116 O   0  0  0  0  0  0  0  0  0  0  0  0
    0.6902   -2.4040   -1.3587 O   0  0  0  0  0  1  0  0  0  0  0  0
   -2.6315   -0.6535   -0.5082 H   0  0  0  0  0  0  0  0  0  0  0  0
   -1.7149   -2.0228    0.0950 H   0  0  0  0  0  0  0  0  0  0  0  0
   -2.4307   -0.9134    1.2508 H   0  0  0  0  0  0  0  0  0  0  0  0
    0.2124    3.1948    0.6460 H   0  0  0  0  0  0  0  0  0  0  0  0
    2.4426    2.2506    0.2519 H   0  0  0  0  0  0  0  0  0  0  0  0
  1  2  1  0
  2  3  2  0
  3  4  1  0
  3  5  1  0
  5  6  2  0
  6  7  1  0
  7  8  1  0
  7  9  2  0
  9 10  1  0
 10 11  2  0
 10 12  1  0
  9  2  1  0
  1 13  1  0
  1 14  1  0
  1 15  1  0
  5 16  1  0
  6 17  1  0
M  CHG  2  10   1  12  -1
M  END
