
     RDKit          3D

 13 13  0  0  0  0  0  0  0  0999 V2000
   -2.1846   -1.7876    0.8385 O   0  0  0  0  0  0  0  0  0  0  0  0
   -1.9553   -0.6028    0.6205 C   0  0  0  0  0  0  0  0  0  0  0  0
   -0.6164   -0.1489    0.1902 C   0  0  0  0  0  0  0  0  0  0  0  0
    0.3827   -1.1183    0.0397 C   0  0  0  0  0  0  0  0  0  0  0  0
    1.6407   -0.7089   -0.3623 C   0  0  0  0  0  0  0  0  0  0  0  0
    3.0078   -2.0037   -0.5724 Br  0  0  0  0  0  0  0  0  0  0  0  0
    1.9523    0.5792   -0.6166 N   0  0  0  0  0  0  0  0  0  0  0  0
    0.9686    1.4955   -0.4634 C   0  0  0  0  0  0  0  0  0  0  0  0
   -0.3250    1.1903   -0.0651 C   0  0  0  0  0  0  0  0  0  0  0  0
   -1.5680    2.6066    0.0948 Br  0  0  0  0  0  0  0  0  0  0  0  0
   -2.7498    0.1483    0.7428 H   0  0  0  0  0  0  0  0  0  0  0  0
    0.1758   -2.1671    0.2338 H   0  0  0  0  0  0  0  0  0  0  0  0
    1.2712    2.5175   -0.6805 H   0  0  0  0  0  0  0  0  0  0  0  0
  1  2  2  0
  2  3  1  0
  3  4  2  0
  4  5  1  0
  5  6  1  0
  5  7  2  0
  7  8  1  0
  8  9  2  0
  9 10  1  0
  9  3  1  0
  2 11  1  0
  4 12  1  0
  8 13  1  0
M  END
