
     RDKit          3D

 37 38  0  0  0  0  0  0  0  0999 V2000
    6.0695    0.5529   -0.7928 C   0  0  0  0  0  0  0  0  0  0  0  0
    4.8137    0.4469    0.0592 C   0  0  0  0  0  0  0  0  0  0  0  0
    3.5523    0.6536   -0.7802 C   0  0  0  0  0  0  0  0  0  0  0  0
    2.2633    0.6765    0.0482 C   0  0  0  0  0  0  0  0  0  0  0  0
    1.9271   -0.6749    0.6845 C   0  0  0  0  0  0  0  0  0  0  0  0
    0.6391   -0.6517    1.5143 C   0  0  0  0  0  0  0  0  0  0  0  0
   -0.6230   -0.4424    0.6762 C   0  0  0  0  0  0  0  0  0  0  0  0
   -1.8832   -0.5487    1.5379 C   0  0  0  0  0  0  0  0  0  0  0  0
   -3.0806   -0.3454    0.7488 N   0  0  0  0  0  0  0  0  0  0  0  0
   -3.7302   -1.3738    0.0817 C   0  0  0  0  0  0  0  0  0  0  0  0
   -3.4526   -2.5599    0.0625 O   0  0  0  0  0  0  0  0  0  0  0  0
   -4.8125   -0.7279   -0.6095 C   0  0  0  0  0  0  0  0  0  0  0  0
   -5.8457   -1.0678   -1.4272 C   0  0  0  0  0  0  0  0  0  0  0  0
   -6.7510    0.3173   -1.8763 S   0  0  0  0  0  0  0  0  0  0  0  0
   -5.7371    1.3585   -0.9665 C   0  0  0  0  0  0  0  0  0  0  0  0
   -4.7506    0.6554   -0.3468 C   0  0  0  0  0  0  0  0  0  0  0  0
   -3.6282    0.9077    0.5149 C   0  0  0  0  0  0  0  0  0  0  0  0
   -3.2490    1.9899    0.9265 O   0  0  0  0  0  0  0  0  0  0  0  0
   -5.9951    3.2423   -0.8652 Br  0  0  0  0  0  0  0  0  0  0  0  0
   -6.2667   -2.8282   -2.0179 Br  0  0  0  0  0  0  0  0  0  0  0  0
    6.0702   -0.2020   -1.5856 H   0  0  0  0  0  0  0  0  0  0  0  0
    6.9602    0.3985   -0.1757 H   0  0  0  0  0  0  0  0  0  0  0  0
    6.1463    1.5408   -1.2581 H   0  0  0  0  0  0  0  0  0  0  0  0
    4.8574    1.1964    0.8578 H   0  0  0  0  0  0  0  0  0  0  0  0
    4.7981   -0.5386    0.5362 H   0  0  0  0  0  0  0  0  0  0  0  0
    3.6316    1.6101   -1.3121 H   0  0  0  0  0  0  0  0  0  0  0  0
    3.4836   -0.1280   -1.5466 H   0  0  0  0  0  0  0  0  0  0  0  0
    1.4485    0.9804   -0.6183 H   0  0  0  0  0  0  0  0  0  0  0  0
    2.3400    1.4451    0.8267 H   0  0  0  0  0  0  0  0  0  0  0  0
    2.7426   -0.9794    1.3499 H   0  0  0  0  0  0  0  0  0  0  0  0
    1.8492   -1.4431   -0.0942 H   0  0  0  0  0  0  0  0  0  0  0  0
    0.7092    0.1291    2.2814 H   0  0  0  0  0  0  0  0  0  0  0  0
    0.5592   -1.6089    2.0448 H   0  0  0  0  0  0  0  0  0  0  0  0
   -0.6003    0.5414    0.1942 H   0  0  0  0  0  0  0  0  0  0  0  0
   -0.6624   -1.1876   -0.1278 H   0  0  0  0  0  0  0  0  0  0  0  0
   -1.9362   -1.5395    2.0032 H   0  0  0  0  0  0  0  0  0  0  0  0
   -1.8566    0.2048    2.3332 H   0  0  0  0  0  0  0  0  0  0  0  0
  1  2  1  0
  2  3  1  0
  3  4  1  0
  4  5  1  0
  5  6  1  0
  6  7  1  0
  7  8  1  0
  8  9  1  0
  9 10  1  0
 10 11  2  0
 10 12  1  0
 12 13  2  0
 13 14  1  0
 14 15  1  0
 15 16  2  0
 16 17  1  0
 17 18  2  0
 15 19  1  0
 13 20  1  0
 17  9  1  0
 16 12  1  0
  1 21  1  0
  1 22  1  0
  1 23  1  0
  2 24  1  0
  2 25  1  0
  3 26  1  0
  3 27  1  0
  4 28  1  0
  4 29  1  0
  5 30  1  0
  5 31  1  0
  6 32  1  0
  6 33  1  0
  7 34  1  0
  7 35  1  0
  8 36  1  0
  8 37  1  0
M  END
