
     RDKit          3D

 11 11  0  0  0  0  0  0  0  0999 V2000
   -0.6476    2.3839    0.2524 F   0  0  0  0  0  0  0  0  0  0  0  0
   -0.3110    1.0928    0.1163 C   0  0  0  0  0  0  0  0  0  0  0  0
    1.0344    0.7654    0.0253 C   0  0  0  0  0  0  0  0  0  0  0  0
    1.3584   -0.5709   -0.1144 C   0  0  0  0  0  0  0  0  0  0  0  0
    3.1845   -1.0622   -0.2423 Br  0  0  0  0  0  0  0  0  0  0  0  0
    0.4372   -1.5599   -0.1657 N   0  0  0  0  0  0  0  0  0  0  0  0
   -0.8652   -1.1991   -0.0735 C   0  0  0  0  0  0  0  0  0  0  0  0
   -1.2879    0.1089    0.0680 C   0  0  0  0  0  0  0  0  0  0  0  0
   -3.1207    0.5244    0.1891 Br  0  0  0  0  0  0  0  0  0  0  0  0
    1.7885    1.5413    0.0642 H   0  0  0  0  0  0  0  0  0  0  0  0
   -1.5707   -2.0245   -0.1192 H   0  0  0  0  0  0  0  0  0  0  0  0
  1  2  1  0
  2  3  2  0
  3  4  1  0
  4  5  1  0
  4  6  2  0
  6  7  1  0
  7  8  2  0
  8  9  1  0
  8  2  1  0
  3 10  1  0
  7 11  1  0
M  END
