
     RDKit          3D

 18 18  0  0  0  0  0  0  0  0999 V2000
   -2.9840   -0.0324   -0.2673 C   0  0  0  0  0  0  0  0  0  0  0  0
   -1.4844   -0.0234   -0.1553 C   0  0  0  0  0  0  0  0  0  0  0  0
   -0.7913   -1.2460   -0.1512 C   0  0  0  0  0  0  0  0  0  0  0  0
    0.6067   -1.2900   -0.0489 C   0  0  0  0  0  0  0  0  0  0  0  0
    1.4042   -3.0129    0.0029 Br  0  0  0  0  0  0  0  0  0  0  0  0
    1.3320   -0.0990    0.0515 C   0  0  0  0  0  0  0  0  0  0  0  0
    2.8095   -0.0773    0.1269 C   0  0  0  0  0  0  0  0  0  0  0  0
    3.5925   -0.7867   -0.4713 O   0  0  0  0  0  0  0  0  0  0  0  0
    3.2372    0.8714    0.9815 O   0  0  0  0  0  0  0  0  0  0  0  0
    0.6480    1.1271    0.0515 C   0  0  0  0  0  0  0  0  0  0  0  0
   -0.7457    1.1634   -0.0503 C   0  0  0  0  0  0  0  0  0  0  0  0
   -1.5807    2.8692   -0.0446 Br  0  0  0  0  0  0  0  0  0  0  0  0
   -3.3042    0.5049   -1.1657 H   0  0  0  0  0  0  0  0  0  0  0  0
   -3.4368    0.4245    0.6184 H   0  0  0  0  0  0  0  0  0  0  0  0
   -3.3747   -1.0530   -0.3427 H   0  0  0  0  0  0  0  0  0  0  0  0
   -1.3513   -2.1778   -0.2240 H   0  0  0  0  0  0  0  0  0  0  0  0
    4.2138    0.7809    0.9641 H   0  0  0  0  0  0  0  0  0  0  0  0
    1.2091    2.0570    0.1245 H   0  0  0  0  0  0  0  0  0  0  0  0
  1  2  1  0
  2  3  2  0
  3  4  1  0
  4  5  1  0
  4  6  2  0
  6  7  1  0
  7  8  2  0
  7  9  1  0
  6 10  1  0
 10 11  2  0
 11 12  1  0
 11  2  1  0
  1 13  1  0
  1 14  1  0
  1 15  1  0
  3 16  1  0
  9 17  1  0
 10 18  1  0
M  END
