
     RDKit          3D

 15 15  0  0  0  0  0  0  0  0999 V2000
   -2.0146   -0.9472    0.1053 C   0  0  0  0  0  0  0  0  0  0  0  0
   -0.6701   -0.2835    0.0241 C   0  0  0  0  0  0  0  0  0  0  0  0
   -0.5081    1.0396   -0.4158 C   0  0  0  0  0  0  0  0  0  0  0  0
   -1.9859    2.1082   -0.9486 Br  0  0  0  0  0  0  0  0  0  0  0  0
    0.7633    1.6243   -0.4777 C   0  0  0  0  0  0  0  0  0  0  0  0
    1.8926    0.8963   -0.1011 C   0  0  0  0  0  0  0  0  0  0  0  0
    1.7464   -0.4171    0.3371 C   0  0  0  0  0  0  0  0  0  0  0  0
    3.2802   -1.3999    0.8465 Br  0  0  0  0  0  0  0  0  0  0  0  0
    0.4778   -0.9970    0.3977 C   0  0  0  0  0  0  0  0  0  0  0  0
    0.3493   -2.2647    0.8221 F   0  0  0  0  0  0  0  0  0  0  0  0
   -1.9412   -1.9771    0.4697 H   0  0  0  0  0  0  0  0  0  0  0  0
   -2.6667   -0.4056    0.7980 H   0  0  0  0  0  0  0  0  0  0  0  0
   -2.4810   -0.9876   -0.8843 H   0  0  0  0  0  0  0  0  0  0  0  0
    0.8837    2.6504   -0.8194 H   0  0  0  0  0  0  0  0  0  0  0  0
    2.8741    1.3606   -0.1534 H   0  0  0  0  0  0  0  0  0  0  0  0
  1  2  1  0
  2  3  2  0
  3  4  1  0
  3  5  1  0
  5  6  2  0
  6  7  1  0
  7  8  1  0
  7  9  2  0
  9 10  1  0
  9  2  1  0
  1 11  1  0
  1 12  1  0
  1 13  1  0
  5 14  1  0
  6 15  1  0
M  END
