
     RDKit          3D

 13 13  0  0  0  0  0  0  0  0999 V2000
   -2.2073   -1.8051   -0.4878 S   0  0  0  0  0  0  0  0  0  0  0  0
   -0.8342   -0.6978   -0.1924 C   0  0  0  0  0  0  0  0  0  0  0  0
    0.4247   -1.1056   -0.6568 C   0  0  0  0  0  0  0  0  0  0  0  0
    1.5434   -0.2945   -0.4632 C   0  0  0  0  0  0  0  0  0  0  0  0
    3.2327   -0.8602   -1.0959 Br  0  0  0  0  0  0  0  0  0  0  0  0
    1.4276    0.9284    0.1919 C   0  0  0  0  0  0  0  0  0  0  0  0
    0.1802    1.3444    0.6583 C   0  0  0  0  0  0  0  0  0  0  0  0
   -0.9477    0.5368    0.4683 C   0  0  0  0  0  0  0  0  0  0  0  0
   -2.6026    1.1905    1.1396 Br  0  0  0  0  0  0  0  0  0  0  0  0
   -3.1451   -1.0422    0.0954 H   0  0  0  0  0  0  0  0  0  0  0  0
    0.5334   -2.0584   -1.1709 H   0  0  0  0  0  0  0  0  0  0  0  0
    2.2975    1.5625    0.3442 H   0  0  0  0  0  0  0  0  0  0  0  0
    0.0974    2.3012    1.1692 H   0  0  0  0  0  0  0  0  0  0  0  0
  1  2  1  0
  2  3  2  0
  3  4  1  0
  4  5  1  0
  4  6  2  0
  6  7  1  0
  7  8  2  0
  8  9  1  0
  8  2  1  0
  1 10  1  0
  3 11  1  0
  6 12  1  0
  7 13  1  0
M  END
