
     RDKit          3D

 18 18  0  0  0  0  0  0  0  0999 V2000
   -2.4946   -0.8864   -0.0070 C   0  0  0  0  0  0  0  0  0  0  0  0
   -1.6922    0.4092   -0.0711 C   0  0  0  0  0  0  0  0  0  0  0  0
   -0.1802    0.2980   -0.0243 C   0  0  0  0  0  0  0  0  0  0  0  0
    0.4676   -0.9475    0.0744 C   0  0  0  0  0  0  0  0  0  0  0  0
    1.8624   -1.0321    0.1164 C   0  0  0  0  0  0  0  0  0  0  0  0
    2.6947   -2.7253    0.2493 Br  0  0  0  0  0  0  0  0  0  0  0  0
    2.6449    0.1153    0.0615 C   0  0  0  0  0  0  0  0  0  0  0  0
    2.0262    1.3596   -0.0363 C   0  0  0  0  0  0  0  0  0  0  0  0
    0.6291    1.4521   -0.0789 C   0  0  0  0  0  0  0  0  0  0  0  0
   -0.1076    3.2019   -0.2130 Br  0  0  0  0  0  0  0  0  0  0  0  0
   -2.2576   -1.5452   -0.8489 H   0  0  0  0  0  0  0  0  0  0  0  0
   -3.5662   -0.6647   -0.0495 H   0  0  0  0  0  0  0  0  0  0  0  0
   -2.3039   -1.4288    0.9249 H   0  0  0  0  0  0  0  0  0  0  0  0
   -2.0171    1.0355    0.7689 H   0  0  0  0  0  0  0  0  0  0  0  0
   -1.9709    0.9193   -1.0014 H   0  0  0  0  0  0  0  0  0  0  0  0
   -0.1058   -1.8696    0.1200 H   0  0  0  0  0  0  0  0  0  0  0  0
    3.7293    0.0537    0.0939 H   0  0  0  0  0  0  0  0  0  0  0  0
    2.6417    2.2553   -0.0790 H   0  0  0  0  0  0  0  0  0  0  0  0
  1  2  1  0
  2  3  1  0
  3  4  2  0
  4  5  1  0
  5  6  1  0
  5  7  2  0
  7  8  1  0
  8  9  2  0
  9 10  1  0
  9  3  1  0
  1 11  1  0
  1 12  1  0
  1 13  1  0
  2 14  1  0
  2 15  1  0
  4 16  1  0
  7 17  1  0
  8 18  1  0
M  END
