
     RDKit          3D

 14 14  0  0  0  0  0  0  0  0999 V2000
   -2.5929    0.1882   -1.0880 F   0  0  0  0  0  0  0  0  0  0  0  0
   -1.9809   -0.1230    0.0862 C   0  0  0  0  0  0  0  0  0  0  0  0
   -2.4021   -1.3845    0.3904 F   0  0  0  0  0  0  0  0  0  0  0  0
   -2.5310    0.6800    1.0363 F   0  0  0  0  0  0  0  0  0  0  0  0
   -0.4839   -0.0074    0.0158 C   0  0  0  0  0  0  0  0  0  0  0  0
    0.3142   -1.1411    0.2550 C   0  0  0  0  0  0  0  0  0  0  0  0
    1.6949   -1.0262    0.1882 C   0  0  0  0  0  0  0  0  0  0  0  0
    2.7613   -2.5583    0.5118 Br  0  0  0  0  0  0  0  0  0  0  0  0
    2.3253    0.1297   -0.0978 N   0  0  0  0  0  0  0  0  0  0  0  0
    1.5470    1.2122   -0.3257 C   0  0  0  0  0  0  0  0  0  0  0  0
    0.1582    1.1972   -0.2817 C   0  0  0  0  0  0  0  0  0  0  0  0
   -0.7666    2.8111   -0.6284 Br  0  0  0  0  0  0  0  0  0  0  0  0
   -0.1417   -2.0999    0.4902 H   0  0  0  0  0  0  0  0  0  0  0  0
    2.0983    2.1220   -0.5523 H   0  0  0  0  0  0  0  0  0  0  0  0
  1  2  1  0
  2  3  1  0
  2  4  1  0
  2  5  1  0
  5  6  2  0
  6  7  1  0
  7  8  1  0
  7  9  2  0
  9 10  1  0
 10 11  2  0
 11 12  1  0
 11  5  1  0
  6 13  1  0
 10 14  1  0
M  END
