
     RDKit          3D

 27 27  0  0  0  0  0  0  0  0999 V2000
   -2.6666    1.5254    0.2507 C   0  0  0  0  0  0  0  0  0  0  0  0
   -3.3101    0.1562    0.3837 C   0  0  0  0  0  0  0  0  0  0  0  0
   -2.4580   -1.0003   -0.1474 C   0  0  0  0  0  0  0  0  0  0  0  0
   -1.1436   -1.2254    0.6077 C   0  0  0  0  0  0  0  0  0  0  0  0
    0.0568   -0.5538   -0.0651 C   0  0  0  0  0  0  0  0  0  0  0  0
    1.3447   -0.8018    0.7255 C   0  0  0  0  0  0  0  0  0  0  0  0
    2.5391   -0.1520    0.0836 C   0  0  0  0  0  0  0  0  0  0  0  0
    2.9990    1.1703    0.4253 C   0  0  0  0  0  0  0  0  0  0  0  0
    4.1041    1.5352   -0.3017 C   0  0  0  0  0  0  0  0  0  0  0  0
    4.9826    3.2210   -0.1128 Br  0  0  0  0  0  0  0  0  0  0  0  0
    4.6117    0.3402   -1.3855 S   0  0  0  0  0  0  0  0  0  0  0  0
    3.3518   -0.6908   -0.8962 C   0  0  0  0  0  0  0  0  0  0  0  0
    3.1286   -2.4293   -1.6757 Br  0  0  0  0  0  0  0  0  0  0  0  0
   -3.3855    2.3053    0.5221 H   0  0  0  0  0  0  0  0  0  0  0  0
   -2.3390    1.7105   -0.7770 H   0  0  0  0  0  0  0  0  0  0  0  0
   -1.8069    1.6272    0.9191 H   0  0  0  0  0  0  0  0  0  0  0  0
   -3.5626   -0.0234    1.4355 H   0  0  0  0  0  0  0  0  0  0  0  0
   -4.2582    0.1636   -0.1677 H   0  0  0  0  0  0  0  0  0  0  0  0
   -2.2728   -0.8700   -1.2203 H   0  0  0  0  0  0  0  0  0  0  0  0
   -3.0615   -1.9119   -0.0491 H   0  0  0  0  0  0  0  0  0  0  0  0
   -1.2367   -0.8942    1.6486 H   0  0  0  0  0  0  0  0  0  0  0  0
   -0.9496   -2.3054    0.6398 H   0  0  0  0  0  0  0  0  0  0  0  0
    0.1655   -0.9431   -1.0851 H   0  0  0  0  0  0  0  0  0  0  0  0
   -0.1088    0.5240   -0.1619 H   0  0  0  0  0  0  0  0  0  0  0  0
    1.2282   -0.4054    1.7427 H   0  0  0  0  0  0  0  0  0  0  0  0
    1.5176   -1.8783    0.8404 H   0  0  0  0  0  0  0  0  0  0  0  0
    2.5303    1.8064    1.1671 H   0  0  0  0  0  0  0  0  0  0  0  0
  1  2  1  0
  2  3  1  0
  3  4  1  0
  4  5  1  0
  5  6  1  0
  6  7  1  0
  7  8  1  0
  8  9  2  0
  9 10  1  0
  9 11  1  0
 11 12  1  0
 12 13  1  0
 12  7  2  0
  1 14  1  0
  1 15  1  0
  1 16  1  0
  2 17  1  0
  2 18  1  0
  3 19  1  0
  3 20  1  0
  4 21  1  0
  4 22  1  0
  5 23  1  0
  5 24  1  0
  6 25  1  0
  6 26  1  0
  8 27  1  0
M  END
