
     RDKit          3D

  8  8  0  0  0  0  0  0  0  0999 V2000
   -2.8080   -1.0995   -0.0168 Br  0  0  0  0  0  0  0  0  0  0  0  0
   -1.0035   -0.4949    0.0181 C   0  0  0  0  0  0  0  0  0  0  0  0
   -0.6197    0.8170    0.1556 C   0  0  0  0  0  0  0  0  0  0  0  0
    0.7487    1.0259    0.1546 N   0  0  0  0  0  0  0  0  0  0  0  0
    1.3522   -0.1338    0.0166 C   0  0  0  0  0  0  0  0  0  0  0  0
    3.2657   -0.2681   -0.0316 Br  0  0  0  0  0  0  0  0  0  0  0  0
    0.3492   -1.5124   -0.1173 S   0  0  0  0  0  0  0  0  0  0  0  0
   -1.2846    1.6658    0.2605 H   0  0  0  0  0  0  0  0  0  0  0  0
  1  2  1  0
  2  3  2  0
  3  4  1  0
  4  5  2  0
  5  6  1  0
  5  7  1  0
  7  2  1  0
  3  8  1  0
M  END
