
     RDKit          3D

 15 15  0  0  0  0  0  0  0  0999 V2000
   -2.5514   -1.0355    1.7499 Cl  0  0  0  0  0  0  0  0  0  0  0  0
   -2.1172   -0.6737    0.0671 C   0  0  0  0  0  0  0  0  0  0  0  0
   -0.6984   -0.1793   -0.0167 C   0  0  0  0  0  0  0  0  0  0  0  0
    0.3293   -1.1200   -0.2283 C   0  0  0  0  0  0  0  0  0  0  0  0
    1.6633   -0.7162   -0.2979 C   0  0  0  0  0  0  0  0  0  0  0  0
    3.0183   -2.0014   -0.5888 Br  0  0  0  0  0  0  0  0  0  0  0  0
    2.0029    0.6245   -0.1529 C   0  0  0  0  0  0  0  0  0  0  0  0
    0.9992    1.5677    0.0685 C   0  0  0  0  0  0  0  0  0  0  0  0
   -0.3420    1.1709    0.1403 C   0  0  0  0  0  0  0  0  0  0  0  0
   -1.6274    2.5330    0.4592 Br  0  0  0  0  0  0  0  0  0  0  0  0
   -2.2393   -1.5956   -0.5121 H   0  0  0  0  0  0  0  0  0  0  0  0
   -2.8352    0.0430   -0.3410 H   0  0  0  0  0  0  0  0  0  0  0  0
    0.0838   -2.1757   -0.3324 H   0  0  0  0  0  0  0  0  0  0  0  0
    3.0401    0.9451   -0.2039 H   0  0  0  0  0  0  0  0  0  0  0  0
    1.2740    2.6133    0.1891 H   0  0  0  0  0  0  0  0  0  0  0  0
  1  2  1  0
  2  3  1  0
  3  4  2  0
  4  5  1  0
  5  6  1  0
  5  7  2  0
  7  8  1  0
  8  9  2  0
  9 10  1  0
  9  3  1  0
  2 11  1  0
  2 12  1  0
  4 13  1  0
  7 14  1  0
  8 15  1  0
M  END
