
     RDKit          3D

 11 11  0  0  0  0  0  0  0  0999 V2000
   -1.9247   -0.5395    0.2265 N   0  0  0  0  0  0  0  0  0  0  0  0
   -0.6250   -0.2546    0.1304 C   0  0  0  0  0  0  0  0  0  0  0  0
    0.3044   -1.2120    0.3908 N   0  0  0  0  0  0  0  0  0  0  0  0
    1.4599   -0.6109    0.2100 C   0  0  0  0  0  0  0  0  0  0  0  0
    3.1526   -1.4521    0.4363 Br  0  0  0  0  0  0  0  0  0  0  0  0
    1.2983    0.6944   -0.1641 N   0  0  0  0  0  0  0  0  0  0  0  0
   -0.0430    0.9337   -0.2249 C   0  0  0  0  0  0  0  0  0  0  0  0
   -0.8653    2.5679   -0.6968 Br  0  0  0  0  0  0  0  0  0  0  0  0
   -2.6150    0.0418   -0.2341 H   0  0  0  0  0  0  0  0  0  0  0  0
   -2.1812   -1.5195    0.2835 H   0  0  0  0  0  0  0  0  0  0  0  0
    2.0390    1.3507   -0.3575 H   0  0  0  0  0  0  0  0  0  0  0  0
  1  2  1  0
  2  3  1  0
  3  4  2  0
  4  5  1  0
  4  6  1  0
  6  7  1  0
  7  8  1  0
  7  2  2  0
  1  9  1  0
  1 10  1  0
  6 11  1  0
M  END
