
     RDKit          3D

 14 14  0  0  0  0  0  0  0  0999 V2000
    2.9223    0.1105   -1.0367 O   0  0  0  0  0  0  0  0  0  0  0  0
    2.3118   -0.3398   -0.0602 N   0  0  0  0  0  4  0  0  0  0  0  0
    2.7958   -1.0059    0.8628 O   0  0  0  0  0  1  0  0  0  0  0  0
    0.8873   -0.1089   -0.0156 C   0  0  0  0  0  0  0  0  0  0  0  0
    0.0502   -1.1808   -0.3537 C   0  0  0  0  0  0  0  0  0  0  0  0
   -1.3285   -0.9833   -0.3255 C   0  0  0  0  0  0  0  0  0  0  0  0
   -2.4802   -2.4113   -0.7800 Br  0  0  0  0  0  0  0  0  0  0  0  0
   -1.8485    0.2610    0.0359 C   0  0  0  0  0  0  0  0  0  0  0  0
   -3.1729    0.4648    0.0676 F   0  0  0  0  0  0  0  0  0  0  0  0
   -1.0056    1.3197    0.3755 C   0  0  0  0  0  0  0  0  0  0  0  0
    0.3793    1.1399    0.3530 C   0  0  0  0  0  0  0  0  0  0  0  0
    1.4690    2.6082    0.8527 Br  0  0  0  0  0  0  0  0  0  0  0  0
    0.4690   -2.1455   -0.6324 H   0  0  0  0  0  0  0  0  0  0  0  0
   -1.4490    2.2715    0.6564 H   0  0  0  0  0  0  0  0  0  0  0  0
  1  2  2  0
  2  3  1  0
  2  4  1  0
  4  5  2  0
  5  6  1  0
  6  7  1  0
  6  8  2  0
  8  9  1  0
  8 10  1  0
 10 11  2  0
 11 12  1  0
 11  4  1  0
  5 13  1  0
 10 14  1  0
M  CHG  2   2   1   3  -1
M  END
