
     RDKit          3D

 10 10  0  0  0  0  0  0  0  0999 V2000
   -3.0315    0.0667   -0.0939 Br  0  0  0  0  0  0  0  0  0  0  0  0
   -1.1565    0.0254   -0.0358 C   0  0  0  0  0  0  0  0  0  0  0  0
   -0.3982    1.1725   -0.0097 C   0  0  0  0  0  0  0  0  0  0  0  0
    0.9517    1.1734    0.0322 N   0  0  0  0  0  0  0  0  0  0  0  0
    1.5465   -0.0340    0.0479 C   0  0  0  0  0  0  0  0  0  0  0  0
    3.4420   -0.0757    0.1066 Br  0  0  0  0  0  0  0  0  0  0  0  0
    0.8994   -1.2141    0.0252 N   0  0  0  0  0  0  0  0  0  0  0  0
   -0.4492   -1.1539   -0.0165 C   0  0  0  0  0  0  0  0  0  0  0  0
   -0.8553    2.1580   -0.0217 H   0  0  0  0  0  0  0  0  0  0  0  0
   -0.9490   -2.1183   -0.0342 H   0  0  0  0  0  0  0  0  0  0  0  0
  1  2  1  0
  2  3  2  0
  3  4  1  0
  4  5  2  0
  5  6  1  0
  5  7  1  0
  7  8  2  0
  8  2  1  0
  3  9  1  0
  8 10  1  0
M  END
