
     RDKit          3D

 13 13  0  0  0  0  0  0  0  0999 V2000
   -2.4711   -0.9343   -0.9771 O   0  0  0  0  0  0  0  0  0  0  0  0
   -1.5972   -1.0330   -0.1115 N   0  0  0  0  0  4  0  0  0  0  0  0
   -1.3951   -1.9953    0.6353 O   0  0  0  0  0  1  0  0  0  0  0  0
   -0.7100    0.0743    0.0458 C   0  0  0  0  0  0  0  0  0  0  0  0
   -1.1171    1.3560    0.3369 C   0  0  0  0  0  0  0  0  0  0  0  0
   -2.9207    1.9462    0.6112 Br  0  0  0  0  0  0  0  0  0  0  0  0
    0.1897    2.4380    0.4818 S   0  0  0  0  0  0  0  0  0  0  0  0
    1.3160    1.2000    0.1683 C   0  0  0  0  0  0  0  0  0  0  0  0
    3.1947    1.5743    0.0846 Br  0  0  0  0  0  0  0  0  0  0  0  0
    0.7141   -0.0205   -0.0352 C   0  0  0  0  0  0  0  0  0  0  0  0
    1.4215   -1.2239   -0.3345 N   0  0  0  0  0  4  0  0  0  0  0  0
    2.2745   -1.5912    0.4780 O   0  0  0  0  0  0  0  0  0  0  0  0
    1.1005   -1.7905   -1.3835 O   0  0  0  0  0  1  0  0  0  0  0  0
  1  2  2  0
  2  3  1  0
  2  4  1  0
  4  5  2  0
  5  6  1  0
  5  7  1  0
  7  8  1  0
  8  9  1  0
  8 10  2  0
 10 11  1  0
 11 12  2  0
 11 13  1  0
 10  4  1  0
M  CHG  4   2   1   3  -1  11   1  13  -1
M  END
