
     RDKit          3D

 13 13  0  0  0  0  0  0  0  0999 V2000
    2.1287    0.5320    0.1756 N   0  0  0  0  0  0  0  0  0  0  0  0
    0.8042    0.0790    0.0339 C   0  0  0  0  0  0  0  0  0  0  0  0
   -0.2086    1.0126   -0.2066 C   0  0  0  0  0  0  0  0  0  0  0  0
   -1.5398    0.6050   -0.2270 C   0  0  0  0  0  0  0  0  0  0  0  0
   -2.9161    1.8437   -0.5819 Br  0  0  0  0  0  0  0  0  0  0  0  0
   -1.8327   -0.7243    0.0288 C   0  0  0  0  0  0  0  0  0  0  0  0
   -0.8955   -1.6556    0.3130 N   0  0  0  0  0  0  0  0  0  0  0  0
    0.3933   -1.2335    0.3346 C   0  0  0  0  0  0  0  0  0  0  0  0
    1.6973   -2.5550    0.7692 Br  0  0  0  0  0  0  0  0  0  0  0  0
    2.8196   -0.2121    0.0965 H   0  0  0  0  0  0  0  0  0  0  0  0
    2.3623    1.3440   -0.3875 H   0  0  0  0  0  0  0  0  0  0  0  0
    0.0422    2.0565   -0.3723 H   0  0  0  0  0  0  0  0  0  0  0  0
   -2.8549   -1.0924    0.0237 H   0  0  0  0  0  0  0  0  0  0  0  0
  1  2  1  0
  2  3  2  0
  3  4  1  0
  4  5  1  0
  4  6  2  0
  6  7  1  0
  7  8  2  0
  8  9  1  0
  8  2  1  0
  1 10  1  0
  1 11  1  0
  3 12  1  0
  6 13  1  0
M  END
