
     RDKit          3D

 15 15  0  0  0  0  0  0  0  0999 V2000
   -2.2016    0.2774    0.2646 C   0  0  0  0  0  0  0  0  0  0  0  0
   -0.7237    0.0689    0.0866 C   0  0  0  0  0  0  0  0  0  0  0  0
    0.1204    1.1898    0.0038 C   0  0  0  0  0  0  0  0  0  0  0  0
    1.4973    1.0306   -0.1615 C   0  0  0  0  0  0  0  0  0  0  0  0
    2.6112    2.5544   -0.2701 Br  0  0  0  0  0  0  0  0  0  0  0  0
    2.0573   -0.2405   -0.2469 C   0  0  0  0  0  0  0  0  0  0  0  0
    1.2319   -1.3623   -0.1663 C   0  0  0  0  0  0  0  0  0  0  0  0
   -0.1494   -1.2102   -0.0007 C   0  0  0  0  0  0  0  0  0  0  0  0
   -1.1979   -2.7910    0.0994 Br  0  0  0  0  0  0  0  0  0  0  0  0
   -2.5429   -0.1778    1.1998 H   0  0  0  0  0  0  0  0  0  0  0  0
   -2.4537    1.3425    0.3105 H   0  0  0  0  0  0  0  0  0  0  0  0
   -2.7532   -0.1509   -0.5784 H   0  0  0  0  0  0  0  0  0  0  0  0
   -0.2997    2.1915    0.0686 H   0  0  0  0  0  0  0  0  0  0  0  0
    3.1286   -0.3694   -0.3756 H   0  0  0  0  0  0  0  0  0  0  0  0
    1.6752   -2.3531   -0.2337 H   0  0  0  0  0  0  0  0  0  0  0  0
  1  2  1  0
  2  3  2  0
  3  4  1  0
  4  5  1  0
  4  6  2  0
  6  7  1  0
  7  8  2  0
  8  9  1  0
  8  2  1  0
  1 10  1  0
  1 11  1  0
  1 12  1  0
  3 13  1  0
  6 14  1  0
  7 15  1  0
M  END
