
     RDKit          3D

 12 12  0  0  0  0  0  0  0  0999 V2000
   -1.3296   -2.3839   -0.0001 F   0  0  0  0  0  0  0  0  0  0  0  0
   -0.6737   -1.2137   -0.0001 C   0  0  0  0  0  0  0  0  0  0  0  0
    0.7180   -1.2434   -0.0194 C   0  0  0  0  0  0  0  0  0  0  0  0
    1.4222   -0.0447   -0.0199 C   0  0  0  0  0  0  0  0  0  0  0  0
    3.3114   -0.0678   -0.0460 Br  0  0  0  0  0  0  0  0  0  0  0  0
    0.7451    1.1740   -0.0012 C   0  0  0  0  0  0  0  0  0  0  0  0
   -0.6546    1.1945    0.0182 C   0  0  0  0  0  0  0  0  0  0  0  0
   -1.4225    2.7429    0.0407 Cl  0  0  0  0  0  0  0  0  0  0  0  0
   -1.3743   -0.0053    0.0188 C   0  0  0  0  0  0  0  0  0  0  0  0
   -3.2722   -0.0593    0.0444 Br  0  0  0  0  0  0  0  0  0  0  0  0
    1.2281   -2.2019   -0.0338 H   0  0  0  0  0  0  0  0  0  0  0  0
    1.3021    2.1086   -0.0016 H   0  0  0  0  0  0  0  0  0  0  0  0
  1  2  1  0
  2  3  2  0
  3  4  1  0
  4  5  1  0
  4  6  2  0
  6  7  1  0
  7  8  1  0
  7  9  2  0
  9 10  1  0
  9  2  1  0
  3 11  1  0
  6 12  1  0
M  END
