
     RDKit          3D

 14 14  0  0  0  0  0  0  0  0999 V2000
   -2.5893   -0.0841    1.1094 F   0  0  0  0  0  0  0  0  0  0  0  0
   -1.8345   -0.7390    0.1866 C   0  0  0  0  0  0  0  0  0  0  0  0
   -2.5426   -0.7265   -0.9747 F   0  0  0  0  0  0  0  0  0  0  0  0
   -1.8222   -2.0427    0.5888 F   0  0  0  0  0  0  0  0  0  0  0  0
   -0.4555   -0.1595    0.0390 C   0  0  0  0  0  0  0  0  0  0  0  0
    0.6691   -0.9599    0.3108 C   0  0  0  0  0  0  0  0  0  0  0  0
    1.9383   -0.4178    0.1721 C   0  0  0  0  0  0  0  0  0  0  0  0
    3.4466   -1.5034    0.5404 Br  0  0  0  0  0  0  0  0  0  0  0  0
    2.1582    0.8538   -0.2148 N   0  0  0  0  0  0  0  0  0  0  0  0
    1.0691    1.6131   -0.4731 C   0  0  0  0  0  0  0  0  0  0  0  0
   -0.2404    1.1611   -0.3631 C   0  0  0  0  0  0  0  0  0  0  0  0
   -1.6413    2.3672   -0.7661 Br  0  0  0  0  0  0  0  0  0  0  0  0
    0.5500   -1.9937    0.6267 H   0  0  0  0  0  0  0  0  0  0  0  0
    1.2943    2.6314   -0.7819 H   0  0  0  0  0  0  0  0  0  0  0  0
  1  2  1  0
  2  3  1  0
  2  4  1  0
  2  5  1  0
  5  6  2  0
  6  7  1  0
  7  8  1  0
  7  9  2  0
  9 10  1  0
 10 11  2  0
 11 12  1  0
 11  5  1  0
  6 13  1  0
 10 14  1  0
M  END
