
     RDKit          3D

 17 17  0  0  0  0  0  0  0  0999 V2000
   -2.7115    0.2602   -0.0618 C   0  0  0  0  0  0  0  0  0  0  0  0
   -1.2158    0.0950   -0.0328 C   0  0  0  0  0  0  0  0  0  0  0  0
   -0.4114    1.2177    0.2474 C   0  0  0  0  0  0  0  0  0  0  0  0
    0.9829    1.1151    0.2857 C   0  0  0  0  0  0  0  0  0  0  0  0
    1.9754    2.6767    0.6992 Br  0  0  0  0  0  0  0  0  0  0  0  0
    1.5651   -0.1255    0.0378 C   0  0  0  0  0  0  0  0  0  0  0  0
    2.9988   -0.2836    0.0583 N   0  0  0  0  0  4  0  0  0  0  0  0
    3.6229    0.1169   -0.9320 O   0  0  0  0  0  0  0  0  0  0  0  0
    3.4836   -0.8452    1.0487 O   0  0  0  0  0  1  0  0  0  0  0  0
    0.7963   -1.2607   -0.2378 C   0  0  0  0  0  0  0  0  0  0  0  0
   -0.5941   -1.1437   -0.2726 C   0  0  0  0  0  0  0  0  0  0  0  0
   -1.5942   -2.7121   -0.6537 Br  0  0  0  0  0  0  0  0  0  0  0  0
   -3.0047    1.2954    0.1441 H   0  0  0  0  0  0  0  0  0  0  0  0
   -3.1061    0.0013   -1.0494 H   0  0  0  0  0  0  0  0  0  0  0  0
   -3.1806   -0.3687    0.7015 H   0  0  0  0  0  0  0  0  0  0  0  0
   -0.8841    2.1805    0.4399 H   0  0  0  0  0  0  0  0  0  0  0  0
    1.2774   -2.2191   -0.4224 H   0  0  0  0  0  0  0  0  0  0  0  0
  1  2  1  0
  2  3  2  0
  3  4  1  0
  4  5  1  0
  4  6  2  0
  6  7  1  0
  7  8  2  0
  7  9  1  0
  6 10  1  0
 10 11  2  0
 11 12  1  0
 11  2  1  0
  1 13  1  0
  1 14  1  0
  1 15  1  0
  3 16  1  0
 10 17  1  0
M  CHG  2   7   1   9  -1
M  END
