
     RDKit          3D

 14 14  0  0  0  0  0  0  0  0999 V2000
   -2.0849   -0.8002    0.1245 C   0  0  0  0  0  0  0  0  0  0  0  0
   -0.6662   -0.3182    0.0403 C   0  0  0  0  0  0  0  0  0  0  0  0
    0.2821   -1.2918   -0.0062 N   0  0  0  0  0  0  0  0  0  0  0  0
    1.5763   -0.9117   -0.0826 C   0  0  0  0  0  0  0  0  0  0  0  0
    2.8915   -2.2754   -0.1469 Br  0  0  0  0  0  0  0  0  0  0  0  0
    1.9823    0.4123   -0.1158 C   0  0  0  0  0  0  0  0  0  0  0  0
    1.0050    1.4028   -0.0678 C   0  0  0  0  0  0  0  0  0  0  0  0
   -0.3387    1.0390    0.0113 C   0  0  0  0  0  0  0  0  0  0  0  0
   -1.6395    2.4139    0.0748 Br  0  0  0  0  0  0  0  0  0  0  0  0
   -2.1216   -1.8949    0.1350 H   0  0  0  0  0  0  0  0  0  0  0  0
   -2.5580   -0.4446    1.0450 H   0  0  0  0  0  0  0  0  0  0  0  0
   -2.6595   -0.4582   -0.7417 H   0  0  0  0  0  0  0  0  0  0  0  0
    3.0319    0.6783   -0.1774 H   0  0  0  0  0  0  0  0  0  0  0  0
    1.2994    2.4487   -0.0925 H   0  0  0  0  0  0  0  0  0  0  0  0
  1  2  1  0
  2  3  2  0
  3  4  1  0
  4  5  1  0
  4  6  2  0
  6  7  1  0
  7  8  2  0
  8  9  1  0
  8  2  1  0
  1 10  1  0
  1 11  1  0
  1 12  1  0
  6 13  1  0
  7 14  1  0
M  END
