
     RDKit          3D

 12 13  0  0  0  0  0  0  0  0999 V2000
    4.1076   -0.0878   -0.7341 Br  0  0  0  0  0  0  0  0  0  0  0  0
    2.2079   -0.0519   -0.4745 C   0  0  0  0  0  0  0  0  0  0  0  0
    1.6382    0.0270    0.7691 C   0  0  0  0  0  0  0  0  0  0  0  0
    0.2144    0.0357    0.6508 C   0  0  0  0  0  0  0  0  0  0  0  0
   -1.1199    0.1159    1.7744 S   0  0  0  0  0  0  0  0  0  0  0  0
   -2.2079    0.0519    0.4745 C   0  0  0  0  0  0  0  0  0  0  0  0
   -4.1076    0.0878    0.7341 Br  0  0  0  0  0  0  0  0  0  0  0  0
   -1.6382   -0.0270   -0.7691 C   0  0  0  0  0  0  0  0  0  0  0  0
   -0.2144   -0.0357   -0.6508 C   0  0  0  0  0  0  0  0  0  0  0  0
    1.1199   -0.1159   -1.7744 S   0  0  0  0  0  0  0  0  0  0  0  0
    2.1828    0.0756    1.7032 H   0  0  0  0  0  0  0  0  0  0  0  0
   -2.1828   -0.0756   -1.7032 H   0  0  0  0  0  0  0  0  0  0  0  0
  1  2  1  0
  2  3  2  0
  3  4  1  0
  4  5  1  0
  5  6  1  0
  6  7  1  0
  6  8  2  0
  8  9  1  0
  9 10  1  0
 10  2  1  0
  9  4  2  0
  3 11  1  0
  8 12  1  0
M  END
