
     RDKit          3D

 11 11  0  0  0  0  0  0  0  0999 V2000
    2.3086    1.1445    0.3005 F   0  0  0  0  0  0  0  0  0  0  0  0
    1.1616    0.4689    0.1404 C   0  0  0  0  0  0  0  0  0  0  0  0
   -0.0374    1.1711    0.1149 C   0  0  0  0  0  0  0  0  0  0  0  0
   -1.2211    0.4626   -0.0514 C   0  0  0  0  0  0  0  0  0  0  0  0
   -2.8771    1.3612   -0.0938 Br  0  0  0  0  0  0  0  0  0  0  0  0
   -1.1589   -0.9182   -0.1854 C   0  0  0  0  0  0  0  0  0  0  0  0
   -0.0027   -1.6251   -0.1639 N   0  0  0  0  0  0  0  0  0  0  0  0
    1.1412   -0.9145   -0.0005 C   0  0  0  0  0  0  0  0  0  0  0  0
    2.7710   -1.8839    0.0326 Br  0  0  0  0  0  0  0  0  0  0  0  0
   -0.0287    2.2503    0.2243 H   0  0  0  0  0  0  0  0  0  0  0  0
   -2.0565   -1.5171   -0.3178 H   0  0  0  0  0  0  0  0  0  0  0  0
  1  2  1  0
  2  3  2  0
  3  4  1  0
  4  5  1  0
  4  6  2  0
  6  7  1  0
  7  8  2  0
  8  9  1  0
  8  2  1  0
  3 10  1  0
  6 11  1  0
M  END
