
     RDKit          3D

 18 18  0  0  0  0  0  0  0  0999 V2000
   -3.1959   -1.9609    0.3421 O   0  0  0  0  0  0  0  0  0  0  0  0
   -2.7556   -0.8582    0.0904 C   0  0  0  0  0  0  0  0  0  0  0  0
   -3.5668    0.1707   -0.2171 O   0  0  0  0  0  0  0  0  0  0  0  0
   -1.3369   -0.4374    0.0706 C   0  0  0  0  0  0  0  0  0  0  0  0
   -1.0086    0.8208    0.6045 C   0  0  0  0  0  0  0  0  0  0  0  0
    0.3209    1.2597    0.6420 C   0  0  0  0  0  0  0  0  0  0  0  0
    0.6387    2.9510    1.4441 Br  0  0  0  0  0  0  0  0  0  0  0  0
    1.3369    0.4374    0.1439 C   0  0  0  0  0  0  0  0  0  0  0  0
    2.7556    0.8582    0.1241 C   0  0  0  0  0  0  0  0  0  0  0  0
    3.1959    1.9609   -0.1276 O   0  0  0  0  0  0  0  0  0  0  0  0
    3.5668   -0.1707    0.4316 O   0  0  0  0  0  0  0  0  0  0  0  0
    1.0086   -0.8208   -0.3899 C   0  0  0  0  0  0  0  0  0  0  0  0
   -0.3209   -1.2597   -0.4275 C   0  0  0  0  0  0  0  0  0  0  0  0
   -0.6387   -2.9510   -1.2296 Br  0  0  0  0  0  0  0  0  0  0  0  0
   -4.4668   -0.2197   -0.1935 H   0  0  0  0  0  0  0  0  0  0  0  0
   -1.7987    1.4556    1.0040 H   0  0  0  0  0  0  0  0  0  0  0  0
    4.4668    0.2197    0.4080 H   0  0  0  0  0  0  0  0  0  0  0  0
    1.7987   -1.4556   -0.7895 H   0  0  0  0  0  0  0  0  0  0  0  0
  1  2  2  0
  2  3  1  0
  2  4  1  0
  4  5  2  0
  5  6  1  0
  6  7  1  0
  6  8  2  0
  8  9  1  0
  9 10  2  0
  9 11  1  0
  8 12  1  0
 12 13  2  0
 13 14  1  0
 13  4  1  0
  3 15  1  0
  5 16  1  0
 11 17  1  0
 12 18  1  0
M  END
