
     RDKit          3D

 14 15  0  0  0  0  0  0  0  0999 V2000
   -3.1632    1.9725   -0.7539 Br  0  0  0  0  0  0  0  0  0  0  0  0
   -1.7057    0.8669   -0.2720 C   0  0  0  0  0  0  0  0  0  0  0  0
   -1.9268   -0.2476    0.5315 C   0  0  0  0  0  0  0  0  0  0  0  0
   -0.8651   -1.0797    0.9008 C   0  0  0  0  0  0  0  0  0  0  0  0
    0.4214   -0.7572    0.4384 C   0  0  0  0  0  0  0  0  0  0  0  0
    1.9135   -1.5743    0.7166 S   0  0  0  0  0  0  0  0  0  0  0  0
    2.7137   -0.4075   -0.2316 C   0  0  0  0  0  0  0  0  0  0  0  0
    4.6073   -0.4818   -0.5369 Br  0  0  0  0  0  0  0  0  0  0  0  0
    1.9789    0.5476   -0.7464 N   0  0  0  0  0  0  0  0  0  0  0  0
    0.6597    0.3593   -0.3697 C   0  0  0  0  0  0  0  0  0  0  0  0
   -0.4248    1.1841   -0.7297 C   0  0  0  0  0  0  0  0  0  0  0  0
   -2.9297   -0.4836    0.8815 H   0  0  0  0  0  0  0  0  0  0  0  0
   -1.0334   -1.9505    1.5278 H   0  0  0  0  0  0  0  0  0  0  0  0
   -0.2459    2.0517   -1.3565 H   0  0  0  0  0  0  0  0  0  0  0  0
  1  2  1  0
  2  3  2  0
  3  4  1  0
  4  5  2  0
  5  6  1  0
  6  7  1  0
  7  8  1  0
  7  9  2  0
  9 10  1  0
 10 11  2  0
 11  2  1  0
 10  5  1  0
  3 12  1  0
  4 13  1  0
 11 14  1  0
M  END
