
     RDKit          3D

 14 14  0  0  0  0  0  0  0  0999 V2000
    3.6776    1.2667   -0.5690 N   0  0  0  0  0  0  0  0  0  0  0  0
    2.6134    0.8427   -0.3839 C   0  0  0  0  0  0  0  0  0  0  0  0
    1.2816    0.3564   -0.1680 C   0  0  0  0  0  0  0  0  0  0  0  0
    0.2051    1.2164   -0.4391 C   0  0  0  0  0  0  0  0  0  0  0  0
   -1.1055    0.7802   -0.2417 C   0  0  0  0  0  0  0  0  0  0  0  0
   -2.5383    1.9599   -0.6149 Br  0  0  0  0  0  0  0  0  0  0  0  0
   -1.3462   -0.5116    0.2253 C   0  0  0  0  0  0  0  0  0  0  0  0
   -2.6074   -0.9916    0.4367 O   0  0  0  0  0  0  0  0  0  0  0  0
   -0.2876   -1.3730    0.4974 C   0  0  0  0  0  0  0  0  0  0  0  0
    1.0276   -0.9403    0.3011 C   0  0  0  0  0  0  0  0  0  0  0  0
    2.4236   -2.1679    0.6925 Br  0  0  0  0  0  0  0  0  0  0  0  0
    0.3946    2.2251   -0.8038 H   0  0  0  0  0  0  0  0  0  0  0  0
   -3.2407   -0.2867    0.2065 H   0  0  0  0  0  0  0  0  0  0  0  0
   -0.4979   -2.3762    0.8609 H   0  0  0  0  0  0  0  0  0  0  0  0
  1  2  3  0
  2  3  1  0
  3  4  2  0
  4  5  1  0
  5  6  1  0
  5  7  2  0
  7  8  1  0
  7  9  1  0
  9 10  2  0
 10 11  1  0
 10  3  1  0
  4 12  1  0
  8 13  1  0
  9 14  1  0
M  END
