
     RDKit          3D

 15 15  0  0  0  0  0  0  0  0999 V2000
    2.6311    0.1153    0.0192 C   0  0  0  0  0  0  0  0  0  0  0  0
    1.1576    0.2409    0.0889 C   0  0  0  0  0  0  0  0  0  0  0  0
    0.5818    1.3903    0.5814 N   0  0  0  0  0  0  0  0  0  0  0  0
   -0.7166    1.1953    0.5135 C   0  0  0  0  0  0  0  0  0  0  0  0
   -1.9802    2.5121    1.0846 Br  0  0  0  0  0  0  0  0  0  0  0  0
   -1.0114   -0.0400   -0.0056 N   0  0  0  0  0  0  0  0  0  0  0  0
   -2.3387   -0.5604   -0.2107 C   0  0  0  0  0  0  0  0  0  0  0  0
    0.1782   -0.6572   -0.2799 C   0  0  0  0  0  0  0  0  0  0  0  0
    0.4665   -2.3860   -1.0143 Br  0  0  0  0  0  0  0  0  0  0  0  0
    2.9564   -0.0375   -1.0145 H   0  0  0  0  0  0  0  0  0  0  0  0
    2.9748   -0.7301    0.6232 H   0  0  0  0  0  0  0  0  0  0  0  0
    3.1186    1.0199    0.3963 H   0  0  0  0  0  0  0  0  0  0  0  0
   -2.8505   -0.5992    0.7545 H   0  0  0  0  0  0  0  0  0  0  0  0
   -2.8691    0.1010   -0.9009 H   0  0  0  0  0  0  0  0  0  0  0  0
   -2.2986   -1.5644   -0.6358 H   0  0  0  0  0  0  0  0  0  0  0  0
  1  2  1  0
  2  3  1  0
  3  4  2  0
  4  5  1  0
  4  6  1  0
  6  7  1  0
  6  8  1  0
  8  9  1  0
  8  2  2  0
  1 10  1  0
  1 11  1  0
  1 12  1  0
  7 13  1  0
  7 14  1  0
  7 15  1  0
M  END
