
     RDKit          3D

 11 11  0  0  0  0  0  0  0  0999 V2000
    2.4810    1.5717    0.3530 Cl  0  0  0  0  0  0  0  0  0  0  0  0
    1.1099    0.5498    0.1256 C   0  0  0  0  0  0  0  0  0  0  0  0
   -0.1582    1.1239    0.2356 C   0  0  0  0  0  0  0  0  0  0  0  0
   -1.2832    0.3266    0.0577 C   0  0  0  0  0  0  0  0  0  0  0  0
   -3.0122    1.0631    0.1979 Br  0  0  0  0  0  0  0  0  0  0  0  0
   -1.1065   -1.0182   -0.2244 C   0  0  0  0  0  0  0  0  0  0  0  0
    0.1077   -1.6054   -0.3376 N   0  0  0  0  0  0  0  0  0  0  0  0
    1.1983   -0.8138   -0.1611 C   0  0  0  0  0  0  0  0  0  0  0  0
    2.8779   -1.6949   -0.3323 Br  0  0  0  0  0  0  0  0  0  0  0  0
   -0.2627    2.1825    0.4580 H   0  0  0  0  0  0  0  0  0  0  0  0
   -1.9519   -1.6853   -0.3724 H   0  0  0  0  0  0  0  0  0  0  0  0
  1  2  1  0
  2  3  2  0
  3  4  1  0
  4  5  1  0
  4  6  2  0
  6  7  1  0
  7  8  2  0
  8  9  1  0
  8  2  1  0
  3 10  1  0
  6 11  1  0
M  END
