
     RDKit          3D

 11 11  0  0  0  0  0  0  0  0999 V2000
   -1.4431   -0.8908   -0.1889 C   0  0  0  0  0  0  0  0  0  0  0  0
   -0.1850   -0.1040   -0.1103 C   0  0  0  0  0  0  0  0  0  0  0  0
    1.0204   -0.7652   -0.3157 N   0  0  0  0  0  0  0  0  0  0  0  0
    2.0102    0.0911   -0.2069 C   0  0  0  0  0  0  0  0  0  0  0  0
    3.8357   -0.4557   -0.4278 Br  0  0  0  0  0  0  0  0  0  0  0  0
    1.5900    1.7081    0.1397 S   0  0  0  0  0  0  0  0  0  0  0  0
   -0.0457    1.2442    0.1484 C   0  0  0  0  0  0  0  0  0  0  0  0
   -1.4741    2.4659    0.4787 Br  0  0  0  0  0  0  0  0  0  0  0  0
   -1.9840   -0.8485    0.7616 H   0  0  0  0  0  0  0  0  0  0  0  0
   -1.2331   -1.9422   -0.4103 H   0  0  0  0  0  0  0  0  0  0  0  0
   -2.0913   -0.5030   -0.9808 H   0  0  0  0  0  0  0  0  0  0  0  0
  1  2  1  0
  2  3  1  0
  3  4  2  0
  4  5  1  0
  4  6  1  0
  6  7  1  0
  7  8  1  0
  7  2  2  0
  1  9  1  0
  1 10  1  0
  1 11  1  0
M  END
