
     RDKit          3D

 12 12  0  0  0  0  0  0  0  0999 V2000
   -1.9112   -0.2818   -0.1952 C   0  0  0  0  0  0  0  0  0  0  0  0
   -0.4432   -0.1497   -0.0642 C   0  0  0  0  0  0  0  0  0  0  0  0
    0.3785   -1.2423   -0.2533 N   0  0  0  0  0  0  0  0  0  0  0  0
    1.6016   -0.7992   -0.0693 C   0  0  0  0  0  0  0  0  0  0  0  0
    3.1648   -1.8758   -0.2037 Br  0  0  0  0  0  0  0  0  0  0  0  0
    1.6120    0.5324    0.2310 N   0  0  0  0  0  0  0  0  0  0  0  0
    0.3170    0.9577    0.2373 C   0  0  0  0  0  0  0  0  0  0  0  0
   -0.2666    2.7206    0.5936 Br  0  0  0  0  0  0  0  0  0  0  0  0
   -2.2875    0.3734   -0.9869 H   0  0  0  0  0  0  0  0  0  0  0  0
   -2.4069   -0.0159    0.7435 H   0  0  0  0  0  0  0  0  0  0  0  0
   -2.1904   -1.3100   -0.4458 H   0  0  0  0  0  0  0  0  0  0  0  0
    2.4319    1.0905    0.4131 H   0  0  0  0  0  0  0  0  0  0  0  0
  1  2  1  0
  2  3  1  0
  3  4  2  0
  4  5  1  0
  4  6  1  0
  6  7  1  0
  7  8  1  0
  7  2  2  0
  1  9  1  0
  1 10  1  0
  1 11  1  0
  6 12  1  0
M  END
