
     RDKit          3D

 14 14  0  0  0  0  0  0  0  0999 V2000
    2.3030    0.0287   -0.4519 N   0  0  0  0  0  0  0  0  0  0  0  0
    0.9383    0.0249   -0.1206 C   0  0  0  0  0  0  0  0  0  0  0  0
    0.2581   -1.1992   -0.0686 C   0  0  0  0  0  0  0  0  0  0  0  0
   -1.1235   -1.2341    0.1352 C   0  0  0  0  0  0  0  0  0  0  0  0
   -2.0066   -2.9035    0.2350 Br  0  0  0  0  0  0  0  0  0  0  0  0
   -1.8398   -0.0463    0.2513 C   0  0  0  0  0  0  0  0  0  0  0  0
   -3.1664   -0.0607    0.4465 F   0  0  0  0  0  0  0  0  0  0  0  0
   -1.1954    1.1806    0.1530 C   0  0  0  0  0  0  0  0  0  0  0  0
    0.1850    1.2130   -0.0515 C   0  0  0  0  0  0  0  0  0  0  0  0
    1.0251    2.9113   -0.2016 Br  0  0  0  0  0  0  0  0  0  0  0  0
    2.7697    0.9050   -0.2266 H   0  0  0  0  0  0  0  0  0  0  0  0
    2.8223   -0.7844   -0.1359 H   0  0  0  0  0  0  0  0  0  0  0  0
    0.8091   -2.1282   -0.1922 H   0  0  0  0  0  0  0  0  0  0  0  0
   -1.7788    2.0927    0.2278 H   0  0  0  0  0  0  0  0  0  0  0  0
  1  2  1  0
  2  3  2  0
  3  4  1  0
  4  5  1  0
  4  6  2  0
  6  7  1  0
  6  8  1  0
  8  9  2  0
  9 10  1  0
  9  2  1  0
  1 11  1  0
  1 12  1  0
  3 13  1  0
  8 14  1  0
M  END
