
     RDKit          3D

 14 14  0  0  0  0  0  0  0  0999 V2000
   -2.3584   -0.5872   -0.4299 C   0  0  0  0  0  0  0  0  0  0  0  0
   -1.6669    0.1417    0.5791 O   0  0  0  0  0  0  0  0  0  0  0  0
   -0.3016    0.2012    0.3831 C   0  0  0  0  0  0  0  0  0  0  0  0
    0.2312   -0.4134   -0.7046 N   0  0  0  0  0  0  0  0  0  0  0  0
    1.5734   -0.3148   -0.8336 C   0  0  0  0  0  0  0  0  0  0  0  0
    2.3926   -1.1445   -2.3233 Br  0  0  0  0  0  0  0  0  0  0  0  0
    2.3556    0.3702    0.0862 C   0  0  0  0  0  0  0  0  0  0  0  0
    1.8361    0.9875    1.1755 N   0  0  0  0  0  0  0  0  0  0  0  0
    0.4877    0.8918    1.3105 C   0  0  0  0  0  0  0  0  0  0  0  0
   -0.2813    1.7431    2.8239 Br  0  0  0  0  0  0  0  0  0  0  0  0
   -2.2404   -0.1155   -1.4115 H   0  0  0  0  0  0  0  0  0  0  0  0
   -2.0368   -1.6342   -0.4538 H   0  0  0  0  0  0  0  0  0  0  0  0
   -3.4237   -0.5725   -0.1800 H   0  0  0  0  0  0  0  0  0  0  0  0
    3.4324    0.4465   -0.0215 H   0  0  0  0  0  0  0  0  0  0  0  0
  1  2  1  0
  2  3  1  0
  3  4  2  0
  4  5  1  0
  5  6  1  0
  5  7  2  0
  7  8  1  0
  8  9  2  0
  9 10  1  0
  9  3  1  0
  1 11  1  0
  1 12  1  0
  1 13  1  0
  7 14  1  0
M  END
