
     RDKit          3D

 11 11  0  0  0  0  0  0  0  0999 V2000
   -2.8382    0.1764   -0.1479 O   0  0  0  0  0  0  0  0  0  0  0  0
   -1.9772   -0.7101   -0.0728 N   0  0  0  0  0  4  0  0  0  0  0  0
   -2.2086   -1.9261   -0.0400 O   0  0  0  0  0  1  0  0  0  0  0  0
   -0.5921   -0.2956   -0.0189 C   0  0  0  0  0  0  0  0  0  0  0  0
    0.4125   -1.2504    0.0645 N   0  0  0  0  0  0  0  0  0  0  0  0
    1.5327   -0.5670    0.0958 C   0  0  0  0  0  0  0  0  0  0  0  0
    3.2630   -1.3503    0.2090 Br  0  0  0  0  0  0  0  0  0  0  0  0
    1.3048    0.7782    0.0371 N   0  0  0  0  0  0  0  0  0  0  0  0
   -0.0477    0.9714   -0.0366 C   0  0  0  0  0  0  0  0  0  0  0  0
   -0.8640    2.6770   -0.1370 Br  0  0  0  0  0  0  0  0  0  0  0  0
    2.0147    1.4965    0.0468 H   0  0  0  0  0  0  0  0  0  0  0  0
  1  2  2  0
  2  3  1  0
  2  4  1  0
  4  5  1  0
  5  6  2  0
  6  7  1  0
  6  8  1  0
  8  9  1  0
  9 10  1  0
  9  4  2  0
  8 11  1  0
M  CHG  2   2   1   3  -1
M  END
