
     RDKit          3D

 14 14  0  0  0  0  0  0  0  0999 V2000
    2.6983    1.1441    0.2848 O   0  0  0  0  0  0  0  0  0  0  0  0
    1.9305    0.3370   -0.1963 C   0  0  0  0  0  0  0  0  0  0  0  0
    2.3685   -0.6532   -0.9969 O   0  0  0  0  0  0  0  0  0  0  0  0
    0.4695    0.2655   -0.0155 C   0  0  0  0  0  0  0  0  0  0  0  0
   -0.1453   -0.9931    0.0800 C   0  0  0  0  0  0  0  0  0  0  0  0
   -1.5181   -1.0711    0.2794 C   0  0  0  0  0  0  0  0  0  0  0  0
   -2.3760   -2.7429    0.4162 Br  0  0  0  0  0  0  0  0  0  0  0  0
   -2.2379    0.1061    0.3789 C   0  0  0  0  0  0  0  0  0  0  0  0
   -1.6764    1.3341    0.2878 N   0  0  0  0  0  0  0  0  0  0  0  0
   -0.3305    1.4004    0.0934 C   0  0  0  0  0  0  0  0  0  0  0  0
    0.3455    3.1705   -0.0950 Br  0  0  0  0  0  0  0  0  0  0  0  0
    3.3367   -0.5026   -1.0582 H   0  0  0  0  0  0  0  0  0  0  0  0
    0.4487   -1.9008    0.0049 H   0  0  0  0  0  0  0  0  0  0  0  0
   -3.3133    0.1061    0.5364 H   0  0  0  0  0  0  0  0  0  0  0  0
  1  2  2  0
  2  3  1  0
  2  4  1  0
  4  5  2  0
  5  6  1  0
  6  7  1  0
  6  8  2  0
  8  9  1  0
  9 10  2  0
 10 11  1  0
 10  4  1  0
  3 12  1  0
  5 13  1  0
  8 14  1  0
M  END
