
     RDKit          3D

 16 16  0  0  0  0  0  0  0  0999 V2000
    2.4847   -1.0057    0.3999 C   0  0  0  0  0  0  0  0  0  0  0  0
    1.8070    0.2395    0.5044 O   0  0  0  0  0  0  0  0  0  0  0  0
    0.4763    0.2730    0.1791 C   0  0  0  0  0  0  0  0  0  0  0  0
   -0.2617   -0.8360   -0.2494 C   0  0  0  0  0  0  0  0  0  0  0  0
   -1.6181   -0.6990   -0.5583 C   0  0  0  0  0  0  0  0  0  0  0  0
   -2.6017   -2.2083   -1.1362 Br  0  0  0  0  0  0  0  0  0  0  0  0
   -2.2563    0.5335   -0.4467 C   0  0  0  0  0  0  0  0  0  0  0  0
   -1.5308    1.6446   -0.0209 C   0  0  0  0  0  0  0  0  0  0  0  0
   -0.1731    1.5146    0.2900 C   0  0  0  0  0  0  0  0  0  0  0  0
    0.7522    3.0732    0.8642 Br  0  0  0  0  0  0  0  0  0  0  0  0
    3.5259   -0.8452    0.6955 H   0  0  0  0  0  0  0  0  0  0  0  0
    2.4844   -1.3695   -0.6328 H   0  0  0  0  0  0  0  0  0  0  0  0
    2.0557   -1.7468    1.0822 H   0  0  0  0  0  0  0  0  0  0  0  0
    0.1954   -1.8145   -0.3504 H   0  0  0  0  0  0  0  0  0  0  0  0
   -3.3110    0.6394   -0.6870 H   0  0  0  0  0  0  0  0  0  0  0  0
   -2.0290    2.6071    0.0663 H   0  0  0  0  0  0  0  0  0  0  0  0
  1  2  1  0
  2  3  1  0
  3  4  2  0
  4  5  1  0
  5  6  1  0
  5  7  2  0
  7  8  1  0
  8  9  2  0
  9 10  1  0
  9  3  1  0
  1 11  1  0
  1 12  1  0
  1 13  1  0
  4 14  1  0
  7 15  1  0
  8 16  1  0
M  END
