
     RDKit          3D

 14 14  0  0  0  0  0  0  0  0999 V2000
    2.7785    0.8387   -0.4976 O   0  0  0  0  0  0  0  0  0  0  0  0
    1.9675    0.0394   -0.0779 C   0  0  0  0  0  0  0  0  0  0  0  0
    2.3504   -1.1617    0.3953 O   0  0  0  0  0  0  0  0  0  0  0  0
    0.5034    0.1940   -0.0095 C   0  0  0  0  0  0  0  0  0  0  0  0
   -0.3130   -0.9182   -0.2694 C   0  0  0  0  0  0  0  0  0  0  0  0
   -1.6947   -0.7762   -0.2359 C   0  0  0  0  0  0  0  0  0  0  0  0
   -2.8207   -2.2463   -0.5833 Br  0  0  0  0  0  0  0  0  0  0  0  0
   -2.2226    0.4691    0.0544 C   0  0  0  0  0  0  0  0  0  0  0  0
   -1.4639    1.5595    0.3127 N   0  0  0  0  0  0  0  0  0  0  0  0
   -0.1111    1.4108    0.2765 C   0  0  0  0  0  0  0  0  0  0  0  0
    0.8605    2.9852    0.7271 Br  0  0  0  0  0  0  0  0  0  0  0  0
    3.3289   -1.1507    0.3165 H   0  0  0  0  0  0  0  0  0  0  0  0
    0.1320   -1.8830   -0.5016 H   0  0  0  0  0  0  0  0  0  0  0  0
   -3.2953    0.6394    0.0929 H   0  0  0  0  0  0  0  0  0  0  0  0
  1  2  2  0
  2  3  1  0
  2  4  1  0
  4  5  2  0
  5  6  1  0
  6  7  1  0
  6  8  2  0
  8  9  1  0
  9 10  2  0
 10 11  1  0
 10  4  1  0
  3 12  1  0
  5 13  1  0
  8 14  1  0
M  END
