
     RDKit          3D

 27 27  0  0  0  0  0  0  0  0999 V2000
   -4.2481    0.6676    0.0512 C   0  0  0  0  0  0  0  0  0  0  0  0
   -3.2466   -0.1757    0.8242 C   0  0  0  0  0  0  0  0  0  0  0  0
   -1.8070    0.1880    0.4579 C   0  0  0  0  0  0  0  0  0  0  0  0
   -0.8049   -0.6670    1.2364 C   0  0  0  0  0  0  0  0  0  0  0  0
    0.6534   -0.2672    0.9948 C   0  0  0  0  0  0  0  0  0  0  0  0
    1.1197   -0.5088   -0.4438 C   0  0  0  0  0  0  0  0  0  0  0  0
    2.5884   -0.2317   -0.6165 C   0  0  0  0  0  0  0  0  0  0  0  0
    3.1094    1.0498   -1.0204 C   0  0  0  0  0  0  0  0  0  0  0  0
    4.4791    1.0458   -1.1042 C   0  0  0  0  0  0  0  0  0  0  0  0
    5.5103    2.5723   -1.6102 Br  0  0  0  0  0  0  0  0  0  0  0  0
    5.1651   -0.4497   -0.7129 S   0  0  0  0  0  0  0  0  0  0  0  0
    3.6300   -1.1196   -0.4227 C   0  0  0  0  0  0  0  0  0  0  0  0
    3.4289   -2.9462    0.1277 Br  0  0  0  0  0  0  0  0  0  0  0  0
   -4.1370    0.5182   -1.0275 H   0  0  0  0  0  0  0  0  0  0  0  0
   -5.2702    0.3915    0.3288 H   0  0  0  0  0  0  0  0  0  0  0  0
   -4.1133    1.7324    0.2666 H   0  0  0  0  0  0  0  0  0  0  0  0
   -3.4066   -0.0282    1.8985 H   0  0  0  0  0  0  0  0  0  0  0  0
   -3.4284   -1.2356    0.6112 H   0  0  0  0  0  0  0  0  0  0  0  0
   -1.6655    0.0459   -0.6193 H   0  0  0  0  0  0  0  0  0  0  0  0
   -1.6305    1.2489    0.6725 H   0  0  0  0  0  0  0  0  0  0  0  0
   -1.0112   -0.5722    2.3098 H   0  0  0  0  0  0  0  0  0  0  0  0
   -0.9429   -1.7248    0.9813 H   0  0  0  0  0  0  0  0  0  0  0  0
    1.2824   -0.8430    1.6855 H   0  0  0  0  0  0  0  0  0  0  0  0
    0.7946    0.7883    1.2600 H   0  0  0  0  0  0  0  0  0  0  0  0
    0.8925   -1.5372   -0.7479 H   0  0  0  0  0  0  0  0  0  0  0  0
    0.5619    0.1401   -1.1300 H   0  0  0  0  0  0  0  0  0  0  0  0
    2.4965    1.9179   -1.2332 H   0  0  0  0  0  0  0  0  0  0  0  0
  1  2  1  0
  2  3  1  0
  3  4  1  0
  4  5  1  0
  5  6  1  0
  6  7  1  0
  7  8  1  0
  8  9  2  0
  9 10  1  0
  9 11  1  0
 11 12  1  0
 12 13  1  0
 12  7  2  0
  1 14  1  0
  1 15  1  0
  1 16  1  0
  2 17  1  0
  2 18  1  0
  3 19  1  0
  3 20  1  0
  4 21  1  0
  4 22  1  0
  5 23  1  0
  5 24  1  0
  6 25  1  0
  6 26  1  0
  8 27  1  0
M  END
