
     RDKit          3D

 11 11  0  0  0  0  0  0  0  0999 V2000
   -0.6155    2.4047    0.0680 F   0  0  0  0  0  0  0  0  0  0  0  0
   -0.2962    1.1025    0.0320 C   0  0  0  0  0  0  0  0  0  0  0  0
    1.0434    0.7515   -0.0558 C   0  0  0  0  0  0  0  0  0  0  0  0
    1.3494   -0.5959   -0.0915 C   0  0  0  0  0  0  0  0  0  0  0  0
    3.1670   -1.1195   -0.2112 Br  0  0  0  0  0  0  0  0  0  0  0  0
    0.4162   -1.5737   -0.0453 N   0  0  0  0  0  0  0  0  0  0  0  0
   -0.8801   -1.1898    0.0402 C   0  0  0  0  0  0  0  0  0  0  0  0
   -1.2850    0.1307    0.0817 C   0  0  0  0  0  0  0  0  0  0  0  0
   -3.1104    0.5784    0.2011 Br  0  0  0  0  0  0  0  0  0  0  0  0
    1.8069    1.5182   -0.0940 H   0  0  0  0  0  0  0  0  0  0  0  0
   -1.5957   -2.0070    0.0748 H   0  0  0  0  0  0  0  0  0  0  0  0
  1  2  1  0
  2  3  2  0
  3  4  1  0
  4  5  1  0
  4  6  2  0
  6  7  1  0
  7  8  2  0
  8  9  1  0
  8  2  1  0
  3 10  1  0
  7 11  1  0
M  END
