
     RDKit          3D

 19 18  0  0  0  0  0  0  0  0999 V2000
    0.6887    0.0000    0.0000 Cl  0  0  0  0  0  0  0  0  0  0  0  0
   -2.4086   -0.4346    0.8434 N   0  0  0  0  0  0  0  0  0  0  0  0
   -1.5946   -0.8199   -0.2611 C   0  0  0  0  0  0  0  0  0  0  0  0
   -0.1992   -0.2664   -0.1614 C   0  0  0  0  0  0  0  0  0  0  0  0
    0.8824   -1.0381    0.2062 C   0  0  0  0  0  0  0  0  0  0  0  0
    2.0946   -0.4017    0.2524 C   0  0  0  0  0  0  0  0  0  0  0  0
    3.6062   -1.4723    0.7647 Br  0  0  0  0  0  0  0  0  0  0  0  0
    2.2741    0.9344   -0.0435 C   0  0  0  0  0  0  0  0  0  0  0  0
    1.1538    1.6592   -0.4062 C   0  0  0  0  0  0  0  0  0  0  0  0
   -0.0978    1.0797   -0.4725 C   0  0  0  0  0  0  0  0  0  0  0  0
   -1.5859    2.1579   -0.9812 Br  0  0  0  0  0  0  0  0  0  0  0  0
   -0.6887    0.0000    0.0000 H   0  0  0  0  0  0  0  0  0  0  0  0
   -2.8638   -1.2597    1.2753 H   0  0  0  0  0  0  0  0  0  0  0  0
   -3.0725    0.3445    0.6770 H   0  0  0  0  0  0  0  0  0  0  0  0
   -1.5046   -1.9436   -0.2568 H   0  0  0  0  0  0  0  0  0  0  0  0
   -1.9977   -0.5530   -1.2484 H   0  0  0  0  0  0  0  0  0  0  0  0
    0.7260   -2.0890    0.4376 H   0  0  0  0  0  0  0  0  0  0  0  0
    3.2556    1.4005    0.0058 H   0  0  0  0  0  0  0  0  0  0  0  0
    1.3320    2.7021   -0.6314 H   0  0  0  0  0  0  0  0  0  0  0  0
  2  3  1  0
  3  4  1  0
  4  5  2  0
  5  6  1  0
  6  7  1  0
  6  8  2  0
  8  9  1  0
  9 10  2  0
 10 11  1  0
 10  4  1  0
  1 12  1  0
  2 13  1  0
  2 14  1  0
  3 15  1  0
  3 16  1  0
  5 17  1  0
  8 18  1  0
  9 19  1  0
M  END
