
     RDKit          3D

 11 11  0  0  0  0  0  0  0  0999 V2000
   -3.0862    0.7153    0.1898 Br  0  0  0  0  0  0  0  0  0  0  0  0
   -1.2781    0.1996    0.0656 C   0  0  0  0  0  0  0  0  0  0  0  0
   -0.2634    1.1445    0.1621 C   0  0  0  0  0  0  0  0  0  0  0  0
    1.0635    0.7263    0.0656 C   0  0  0  0  0  0  0  0  0  0  0  0
    1.3204   -0.6256   -0.1242 C   0  0  0  0  0  0  0  0  0  0  0  0
    3.1209   -1.2044   -0.2567 Br  0  0  0  0  0  0  0  0  0  0  0  0
    0.3509   -1.5625   -0.2210 N   0  0  0  0  0  0  0  0  0  0  0  0
   -0.9283   -1.1284   -0.1238 C   0  0  0  0  0  0  0  0  0  0  0  0
   -0.4906    2.1964    0.3106 H   0  0  0  0  0  0  0  0  0  0  0  0
    1.8716    1.4464    0.1381 H   0  0  0  0  0  0  0  0  0  0  0  0
   -1.6808   -1.9078   -0.2060 H   0  0  0  0  0  0  0  0  0  0  0  0
  1  2  1  0
  2  3  2  0
  3  4  1  0
  4  5  2  0
  5  6  1  0
  5  7  1  0
  7  8  2  0
  8  2  1  0
  3  9  1  0
  4 10  1  0
  8 11  1  0
M  END
