
     RDKit          3D

 21 21  0  0  0  0  0  0  0  0999 V2000
   -2.2448   -1.1409    0.3500 C   0  0  0  0  0  0  0  0  0  0  0  0
   -1.6709    0.2271    0.6848 C   0  0  0  0  0  0  0  0  0  0  0  0
   -1.1669    0.9971   -0.5402 C   0  0  0  0  0  0  0  0  0  0  0  0
    0.0019    0.3489   -1.2908 C   0  0  0  0  0  0  0  0  0  0  0  0
    1.2716    0.2640   -0.4880 C   0  0  0  0  0  0  0  0  0  0  0  0
    1.7061   -0.9353    0.1837 C   0  0  0  0  0  0  0  0  0  0  0  0
    2.8933   -0.7545    0.8475 C   0  0  0  0  0  0  0  0  0  0  0  0
    3.7596   -2.1277    1.8537 Br  0  0  0  0  0  0  0  0  0  0  0  0
    3.5146    0.8093    0.6839 S   0  0  0  0  0  0  0  0  0  0  0  0
    2.1963    1.2717   -0.2849 C   0  0  0  0  0  0  0  0  0  0  0  0
    2.0668    3.0466   -1.0016 Br  0  0  0  0  0  0  0  0  0  0  0  0
   -3.0360   -1.0614   -0.4022 H   0  0  0  0  0  0  0  0  0  0  0  0
   -2.6760   -1.5963    1.2473 H   0  0  0  0  0  0  0  0  0  0  0  0
   -1.4755   -1.8200   -0.0277 H   0  0  0  0  0  0  0  0  0  0  0  0
   -2.4581    0.8229    1.1629 H   0  0  0  0  0  0  0  0  0  0  0  0
   -0.8722    0.1195    1.4267 H   0  0  0  0  0  0  0  0  0  0  0  0
   -0.8830    2.0056   -0.2161 H   0  0  0  0  0  0  0  0  0  0  0  0
   -2.0005    1.1237   -1.2425 H   0  0  0  0  0  0  0  0  0  0  0  0
    0.1950    0.9237   -2.2052 H   0  0  0  0  0  0  0  0  0  0  0  0
   -0.2820   -0.6524   -1.6361 H   0  0  0  0  0  0  0  0  0  0  0  0
    1.1608   -1.8717    0.1741 H   0  0  0  0  0  0  0  0  0  0  0  0
  1  2  1  0
  2  3  1  0
  3  4  1  0
  4  5  1  0
  5  6  1  0
  6  7  2  0
  7  8  1  0
  7  9  1  0
  9 10  1  0
 10 11  1  0
 10  5  2  0
  1 12  1  0
  1 13  1  0
  1 14  1  0
  2 15  1  0
  2 16  1  0
  3 17  1  0
  3 18  1  0
  4 19  1  0
  4 20  1  0
  6 21  1  0
M  END
