
     RDKit          3D

  8  8  0  0  0  0  0  0  0  0999 V2000
   -2.8335   -1.0305   -0.0076 Br  0  0  0  0  0  0  0  0  0  0  0  0
   -1.0199   -0.4615    0.0935 C   0  0  0  0  0  0  0  0  0  0  0  0
   -0.5494    0.7415   -0.3741 C   0  0  0  0  0  0  0  0  0  0  0  0
    0.8080    0.9448   -0.1942 N   0  0  0  0  0  0  0  0  0  0  0  0
    1.3170   -0.1102    0.4024 C   0  0  0  0  0  0  0  0  0  0  0  0
    3.1845   -0.2160    0.8301 Br  0  0  0  0  0  0  0  0  0  0  0  0
    0.2342   -1.3798    0.7771 S   0  0  0  0  0  0  0  0  0  0  0  0
   -1.1409    1.5117   -0.8542 H   0  0  0  0  0  0  0  0  0  0  0  0
  1  2  1  0
  2  3  2  0
  3  4  1  0
  4  5  2  0
  5  6  1  0
  5  7  1  0
  7  2  1  0
  3  8  1  0
M  END
