
     RDKit          3D

 14 14  0  0  0  0  0  0  0  0999 V2000
    4.1105   -0.8508   -0.6827 S   0  0  0  0  0  0  0  0  0  0  0  0
    2.6769   -0.9437    0.4018 C   0  0  0  0  0  0  0  0  0  0  0  0
    1.7461   -1.0023    1.1172 N   0  0  0  0  0  0  0  0  0  0  0  0
    0.5918   -0.4370    0.5353 C   0  0  0  0  0  0  0  0  0  0  0  0
    0.2985    0.9120    0.7911 C   0  0  0  0  0  0  0  0  0  0  0  0
   -0.8480    1.5013    0.2574 C   0  0  0  0  0  0  0  0  0  0  0  0
   -1.2124    3.3233    0.6046 Br  0  0  0  0  0  0  0  0  0  0  0  0
   -1.7283    0.7590   -0.5260 C   0  0  0  0  0  0  0  0  0  0  0  0
   -1.4653   -0.5890   -0.7711 C   0  0  0  0  0  0  0  0  0  0  0  0
   -0.3178   -1.1857   -0.2380 C   0  0  0  0  0  0  0  0  0  0  0  0
   -0.0380   -3.0322   -0.5888 Br  0  0  0  0  0  0  0  0  0  0  0  0
    0.9721    1.4963    1.4139 H   0  0  0  0  0  0  0  0  0  0  0  0
   -2.6233    1.2159   -0.9418 H   0  0  0  0  0  0  0  0  0  0  0  0
   -2.1628   -1.1673   -1.3729 H   0  0  0  0  0  0  0  0  0  0  0  0
  1  2  2  0
  2  3  2  0
  3  4  1  0
  4  5  2  0
  5  6  1  0
  6  7  1  0
  6  8  2  0
  8  9  1  0
  9 10  2  0
 10 11  1  0
 10  4  1  0
  5 12  1  0
  8 13  1  0
  9 14  1  0
M  END
