
     RDKit          3D

 17 17  0  0  0  0  0  0  0  0999 V2000
   -2.0620    0.5760    0.3191 C   0  0  0  0  0  0  0  0  0  0  0  0
   -0.7135   -0.0521    0.0764 C   0  0  0  0  0  0  0  0  0  0  0  0
   -0.5937   -1.4389   -0.1254 C   0  0  0  0  0  0  0  0  0  0  0  0
   -2.1019   -2.5978   -0.1059 Br  0  0  0  0  0  0  0  0  0  0  0  0
    0.6551   -2.0324   -0.3517 C   0  0  0  0  0  0  0  0  0  0  0  0
    1.8147   -1.2567   -0.3823 C   0  0  0  0  0  0  0  0  0  0  0  0
    1.7355    0.1211   -0.1865 C   0  0  0  0  0  0  0  0  0  0  0  0
    3.3591    1.1046   -0.2432 Br  0  0  0  0  0  0  0  0  0  0  0  0
    0.4808    0.7038    0.0390 C   0  0  0  0  0  0  0  0  0  0  0  0
    0.4178    2.1338    0.2400 N   0  0  0  0  0  4  0  0  0  0  0  0
    0.2509    2.8333   -0.7673 O   0  0  0  0  0  0  0  0  0  0  0  0
    0.5050    2.5392    1.4060 O   0  0  0  0  0  1  0  0  0  0  0  0
   -2.0197    1.6588    0.4607 H   0  0  0  0  0  0  0  0  0  0  0  0
   -2.7211    0.3972   -0.5370 H   0  0  0  0  0  0  0  0  0  0  0  0
   -2.5152    0.1587    1.2244 H   0  0  0  0  0  0  0  0  0  0  0  0
    0.7353   -3.1073   -0.5066 H   0  0  0  0  0  0  0  0  0  0  0  0
    2.7729   -1.7413   -0.5599 H   0  0  0  0  0  0  0  0  0  0  0  0
  1  2  1  0
  2  3  2  0
  3  4  1  0
  3  5  1  0
  5  6  2  0
  6  7  1  0
  7  8  1  0
  7  9  2  0
  9 10  1  0
 10 11  2  0
 10 12  1  0
  9  2  1  0
  1 13  1  0
  1 14  1  0
  1 15  1  0
  5 16  1  0
  6 17  1  0
M  CHG  2  10   1  12  -1
M  END
