
     RDKit          3D

 11 11  0  0  0  0  0  0  0  0999 V2000
   -2.4996   -0.2840    0.1641 O   0  0  0  0  0  0  0  0  0  0  0  0
   -1.3694   -0.7249    0.0090 C   0  0  0  0  0  0  0  0  0  0  0  0
   -1.2039   -2.0541   -0.1935 O   0  0  0  0  0  0  0  0  0  0  0  0
   -0.1253    0.0404    0.0160 C   0  0  0  0  0  0  0  0  0  0  0  0
    1.1114   -0.5978   -0.1759 N   0  0  0  0  0  0  0  0  0  0  0  0
    2.0796    0.2839   -0.1298 C   0  0  0  0  0  0  0  0  0  0  0  0
    3.9135   -0.2313   -0.3530 Br  0  0  0  0  0  0  0  0  0  0  0  0
    1.6253    1.9020    0.1374 S   0  0  0  0  0  0  0  0  0  0  0  0
   -0.0061    1.4060    0.2003 C   0  0  0  0  0  0  0  0  0  0  0  0
   -1.4114    2.6694    0.4949 Br  0  0  0  0  0  0  0  0  0  0  0  0
   -2.1142   -2.4096   -0.1695 H   0  0  0  0  0  0  0  0  0  0  0  0
  1  2  2  0
  2  3  1  0
  2  4  1  0
  4  5  1  0
  5  6  2  0
  6  7  1  0
  6  8  1  0
  8  9  1  0
  9 10  1  0
  9  4  2  0
  3 11  1  0
M  END
