
     RDKit          3D

 15 15  0  0  0  0  0  0  0  0999 V2000
   -2.0067    0.9687    0.0378 C   0  0  0  0  0  0  0  0  0  0  0  0
   -0.6681    0.2888    0.0134 C   0  0  0  0  0  0  0  0  0  0  0  0
   -0.5315   -1.1079    0.0437 C   0  0  0  0  0  0  0  0  0  0  0  0
   -2.0386   -2.2624    0.1186 Br  0  0  0  0  0  0  0  0  0  0  0  0
    0.7352   -1.7054    0.0195 C   0  0  0  0  0  0  0  0  0  0  0  0
    1.8851   -0.9169   -0.0354 C   0  0  0  0  0  0  0  0  0  0  0  0
    1.7642    0.4698   -0.0659 C   0  0  0  0  0  0  0  0  0  0  0  0
    3.3259    1.5345   -0.1403 Br  0  0  0  0  0  0  0  0  0  0  0  0
    0.5003    1.0623   -0.0416 C   0  0  0  0  0  0  0  0  0  0  0  0
    0.3961    2.4009   -0.0715 F   0  0  0  0  0  0  0  0  0  0  0  0
   -2.5465    0.7165    0.9563 H   0  0  0  0  0  0  0  0  0  0  0  0
   -2.6016    0.6723   -0.8321 H   0  0  0  0  0  0  0  0  0  0  0  0
   -1.9125    2.0591    0.0080 H   0  0  0  0  0  0  0  0  0  0  0  0
    0.8359   -2.7887    0.0432 H   0  0  0  0  0  0  0  0  0  0  0  0
    2.8628   -1.3918   -0.0537 H   0  0  0  0  0  0  0  0  0  0  0  0
  1  2  1  0
  2  3  2  0
  3  4  1  0
  3  5  1  0
  5  6  2  0
  6  7  1  0
  7  8  1  0
  7  9  2  0
  9 10  1  0
  9  2  1  0
  1 11  1  0
  1 12  1  0
  1 13  1  0
  5 14  1  0
  6 15  1  0
M  END
