
     RDKit          3D

 33 33  0  0  0  0  0  0  0  0999 V2000
   -5.5703   -0.3079    0.1784 C   0  0  0  0  0  0  0  0  0  0  0  0
   -4.1805   -0.3386    0.7940 C   0  0  0  0  0  0  0  0  0  0  0  0
   -3.0947   -0.4220   -0.2785 C   0  0  0  0  0  0  0  0  0  0  0  0
   -1.6983   -0.4527    0.3448 C   0  0  0  0  0  0  0  0  0  0  0  0
   -0.6115   -0.5359   -0.7283 C   0  0  0  0  0  0  0  0  0  0  0  0
    0.7849   -0.5662   -0.1034 C   0  0  0  0  0  0  0  0  0  0  0  0
    1.8723   -0.6464   -1.1784 C   0  0  0  0  0  0  0  0  0  0  0  0
    3.2870   -0.7562   -0.5996 C   0  0  0  0  0  0  0  0  0  0  0  0
    3.7544    0.4950    0.0933 C   0  0  0  0  0  0  0  0  0  0  0  0
    4.1766    1.6763   -0.6185 C   0  0  0  0  0  0  0  0  0  0  0  0
    4.5566    2.6839    0.2316 C   0  0  0  0  0  0  0  0  0  0  0  0
    5.1672    4.3932   -0.3636 Br  0  0  0  0  0  0  0  0  0  0  0  0
    4.4302    2.2596    1.8631 S   0  0  0  0  0  0  0  0  0  0  0  0
    3.8618    0.7095    1.4551 C   0  0  0  0  0  0  0  0  0  0  0  0
    3.4235   -0.5703    2.8157 Br  0  0  0  0  0  0  0  0  0  0  0  0
   -6.3311   -0.2482    0.9630 H   0  0  0  0  0  0  0  0  0  0  0  0
   -5.6898    0.5603   -0.4774 H   0  0  0  0  0  0  0  0  0  0  0  0
   -5.7590   -1.2117   -0.4097 H   0  0  0  0  0  0  0  0  0  0  0  0
   -4.1049   -1.1996    1.4684 H   0  0  0  0  0  0  0  0  0  0  0  0
   -4.0361    0.5627    1.4009 H   0  0  0  0  0  0  0  0  0  0  0  0
   -3.1773    0.4391   -0.9528 H   0  0  0  0  0  0  0  0  0  0  0  0
   -3.2461   -1.3231   -0.8854 H   0  0  0  0  0  0  0  0  0  0  0  0
   -1.6156   -1.3140    1.0189 H   0  0  0  0  0  0  0  0  0  0  0  0
   -1.5472    0.4484    0.9517 H   0  0  0  0  0  0  0  0  0  0  0  0
   -0.7626   -1.4370   -1.3350 H   0  0  0  0  0  0  0  0  0  0  0  0
   -0.6936    0.3257   -1.4021 H   0  0  0  0  0  0  0  0  0  0  0  0
    0.9243    0.3343    0.5055 H   0  0  0  0  0  0  0  0  0  0  0  0
    0.8665   -1.4303    0.5667 H   0  0  0  0  0  0  0  0  0  0  0  0
    1.8015    0.2269   -1.8387 H   0  0  0  0  0  0  0  0  0  0  0  0
    1.6892   -1.5298   -1.8028 H   0  0  0  0  0  0  0  0  0  0  0  0
    3.3508   -1.6257    0.0634 H   0  0  0  0  0  0  0  0  0  0  0  0
    3.9812   -0.9633   -1.4250 H   0  0  0  0  0  0  0  0  0  0  0  0
    4.1907    1.7639   -1.6986 H   0  0  0  0  0  0  0  0  0  0  0  0
  1  2  1  0
  2  3  1  0
  3  4  1  0
  4  5  1  0
  5  6  1  0
  6  7  1  0
  7  8  1  0
  8  9  1  0
  9 10  1  0
 10 11  2  0
 11 12  1  0
 11 13  1  0
 13 14  1  0
 14 15  1  0
 14  9  2  0
  1 16  1  0
  1 17  1  0
  1 18  1  0
  2 19  1  0
  2 20  1  0
  3 21  1  0
  3 22  1  0
  4 23  1  0
  4 24  1  0
  5 25  1  0
  5 26  1  0
  6 27  1  0
  6 28  1  0
  7 29  1  0
  7 30  1  0
  8 31  1  0
  8 32  1  0
 10 33  1  0
M  END
