
     RDKit          3D

 13 13  0  0  0  0  0  0  0  0999 V2000
   -1.9308    0.5270    0.0112 C   0  0  0  0  0  0  0  0  0  0  0  0
   -0.4655    0.2043   -0.0030 C   0  0  0  0  0  0  0  0  0  0  0  0
    0.3700    1.2675   -0.1039 N   0  0  0  0  0  0  0  0  0  0  0  0
    1.6917    1.0156   -0.1197 C   0  0  0  0  0  0  0  0  0  0  0  0
    2.8634    2.5004   -0.2606 Br  0  0  0  0  0  0  0  0  0  0  0  0
    2.2437   -0.2059   -0.0433 N   0  0  0  0  0  0  0  0  0  0  0  0
    1.3800   -1.2372    0.0559 C   0  0  0  0  0  0  0  0  0  0  0  0
    0.0083   -1.0940    0.0811 C   0  0  0  0  0  0  0  0  0  0  0  0
   -1.0942   -2.6166    0.2231 Br  0  0  0  0  0  0  0  0  0  0  0  0
   -2.3897    0.1895    0.9457 H   0  0  0  0  0  0  0  0  0  0  0  0
   -2.0900    1.6080   -0.0650 H   0  0  0  0  0  0  0  0  0  0  0  0
   -2.4363    0.0569   -0.8380 H   0  0  0  0  0  0  0  0  0  0  0  0
    1.8494   -2.2156    0.1164 H   0  0  0  0  0  0  0  0  0  0  0  0
  1  2  1  0
  2  3  2  0
  3  4  1  0
  4  5  1  0
  4  6  2  0
  6  7  1  0
  7  8  2  0
  8  9  1  0
  8  2  1  0
  1 10  1  0
  1 11  1  0
  1 12  1  0
  7 13  1  0
M  END
