
     RDKit          3D

 12 12  0  0  0  0  0  0  0  0999 V2000
   -1.5759   -0.7600   -0.2374 C   0  0  0  0  0  0  0  0  0  0  0  0
   -0.3033   -0.0243    0.0209 C   0  0  0  0  0  0  0  0  0  0  0  0
    0.9946   -0.4971   -0.3836 C   0  0  0  0  0  0  0  0  0  0  0  0
    1.9937    0.3719   -0.0216 C   0  0  0  0  0  0  0  0  0  0  0  0
    3.8428    0.0695   -0.3951 Br  0  0  0  0  0  0  0  0  0  0  0  0
    1.4229    1.7418    0.7909 S   0  0  0  0  0  0  0  0  0  0  0  0
   -0.1791    1.1891    0.6696 C   0  0  0  0  0  0  0  0  0  0  0  0
   -1.6466    2.1955    1.3846 Br  0  0  0  0  0  0  0  0  0  0  0  0
   -1.3890   -1.6979   -0.7707 H   0  0  0  0  0  0  0  0  0  0  0  0
   -2.2524   -0.1560   -0.8505 H   0  0  0  0  0  0  0  0  0  0  0  0
   -2.0772   -1.0052    0.7044 H   0  0  0  0  0  0  0  0  0  0  0  0
    1.1696   -1.4274   -0.9113 H   0  0  0  0  0  0  0  0  0  0  0  0
  1  2  1  0
  2  3  1  0
  3  4  2  0
  4  5  1  0
  4  6  1  0
  6  7  1  0
  7  8  1  0
  7  2  2  0
  1  9  1  0
  1 10  1  0
  1 11  1  0
  3 12  1  0
M  END
