
     RDKit          3D

 12 12  0  0  0  0  0  0  0  0999 V2000
   -1.9567   -2.3775    0.0883 Cl  0  0  0  0  0  0  0  0  0  0  0  0
   -0.8867   -1.0214    0.0388 C   0  0  0  0  0  0  0  0  0  0  0  0
    0.4865   -1.2850    0.0191 C   0  0  0  0  0  0  0  0  0  0  0  0
    1.3938   -0.2276   -0.0208 C   0  0  0  0  0  0  0  0  0  0  0  0
    3.2497   -0.5855   -0.0474 Br  0  0  0  0  0  0  0  0  0  0  0  0
    0.9454    1.0916   -0.0414 C   0  0  0  0  0  0  0  0  0  0  0  0
   -0.4255    1.3565   -0.0218 C   0  0  0  0  0  0  0  0  0  0  0  0
   -1.3446    0.3020    0.0183 C   0  0  0  0  0  0  0  0  0  0  0  0
   -3.1896    0.7510    0.0427 Br  0  0  0  0  0  0  0  0  0  0  0  0
    0.8434   -2.3118    0.0349 H   0  0  0  0  0  0  0  0  0  0  0  0
    1.6514    1.9182   -0.0725 H   0  0  0  0  0  0  0  0  0  0  0  0
   -0.7672    2.3893   -0.0381 H   0  0  0  0  0  0  0  0  0  0  0  0
  1  2  1  0
  2  3  2  0
  3  4  1  0
  4  5  1  0
  4  6  2  0
  6  7  1  0
  7  8  2  0
  8  9  1  0
  8  2  1  0
  3 10  1  0
  6 11  1  0
  7 12  1  0
M  END
