
     RDKit          3D

 12 12  0  0  0  0  0  0  0  0999 V2000
   -2.2665   -2.0860   -0.0122 Cl  0  0  0  0  0  0  0  0  0  0  0  0
   -1.0193   -0.8899   -0.0047 C   0  0  0  0  0  0  0  0  0  0  0  0
    0.3046   -1.3397   -0.0258 C   0  0  0  0  0  0  0  0  0  0  0  0
    1.3493   -0.4170   -0.0208 C   0  0  0  0  0  0  0  0  0  0  0  0
    3.1383   -1.0266   -0.0493 Br  0  0  0  0  0  0  0  0  0  0  0  0
    1.0872    0.9513    0.0050 C   0  0  0  0  0  0  0  0  0  0  0  0
   -0.2343    1.4022    0.0261 C   0  0  0  0  0  0  0  0  0  0  0  0
   -1.2903    0.4840    0.0213 C   0  0  0  0  0  0  0  0  0  0  0  0
   -3.0559    1.1823    0.0511 Br  0  0  0  0  0  0  0  0  0  0  0  0
    0.5163   -2.4059   -0.0459 H   0  0  0  0  0  0  0  0  0  0  0  0
    1.9007    1.6731    0.0090 H   0  0  0  0  0  0  0  0  0  0  0  0
   -0.4301    2.4721    0.0462 H   0  0  0  0  0  0  0  0  0  0  0  0
  1  2  1  0
  2  3  2  0
  3  4  1  0
  4  5  1  0
  4  6  2  0
  6  7  1  0
  7  8  2  0
  8  9  1  0
  8  2  1  0
  3 10  1  0
  6 11  1  0
  7 12  1  0
M  END
