
     RDKit          3D

 16 16  0  0  0  0  0  0  0  0999 V2000
    2.6632    0.0142    0.9429 N   0  0  0  0  0  0  0  0  0  0  0  0
    1.3307    0.0768    0.5067 C   0  0  0  0  0  0  0  0  0  0  0  0
    0.3710   -0.7192    1.1514 C   0  0  0  0  0  0  0  0  0  0  0  0
   -0.9447   -0.7901    0.6792 C   0  0  0  0  0  0  0  0  0  0  0  0
   -2.1642   -1.8934    1.6243 Br  0  0  0  0  0  0  0  0  0  0  0  0
   -1.2812   -0.0785   -0.4710 C   0  0  0  0  0  0  0  0  0  0  0  0
   -2.6268   -0.1108   -0.9924 N   0  0  0  0  0  4  0  0  0  0  0  0
   -3.4811    0.5451   -0.3837 O   0  0  0  0  0  0  0  0  0  0  0  0
   -2.8074   -0.7577   -2.0315 O   0  0  0  0  0  1  0  0  0  0  0  0
   -0.3378    0.6798   -1.1703 C   0  0  0  0  0  0  0  0  0  0  0  0
    0.9683    0.7364   -0.6839 C   0  0  0  0  0  0  0  0  0  0  0  0
    2.2394    1.7584   -1.6590 Br  0  0  0  0  0  0  0  0  0  0  0  0
    2.7858   -0.1548    1.9367 H   0  0  0  0  0  0  0  0  0  0  0  0
    3.2398    0.7814    0.6022 H   0  0  0  0  0  0  0  0  0  0  0  0
    0.6608   -1.2955    2.0282 H   0  0  0  0  0  0  0  0  0  0  0  0
   -0.6158    1.2078   -2.0796 H   0  0  0  0  0  0  0  0  0  0  0  0
  1  2  1  0
  2  3  2  0
  3  4  1  0
  4  5  1  0
  4  6  2  0
  6  7  1  0
  7  8  2  0
  7  9  1  0
  6 10  1  0
 10 11  2  0
 11 12  1  0
 11  2  1  0
  1 13  1  0
  1 14  1  0
  3 15  1  0
 10 16  1  0
M  CHG  2   7   1   9  -1
M  END
