
     RDKit          3D

 20 20  0  0  0  0  0  0  0  0999 V2000
   -3.6117    0.1556   -0.9031 O   0  0  0  0  0  0  0  0  0  0  0  0
   -2.9290   -0.6265    0.0657 C   0  0  0  0  0  0  0  0  0  0  0  0
   -1.4567   -0.3114    0.0539 C   0  0  0  0  0  0  0  0  0  0  0  0
   -0.5971   -1.1469   -0.6808 C   0  0  0  0  0  0  0  0  0  0  0  0
    0.7822   -0.9052   -0.7385 C   0  0  0  0  0  0  0  0  0  0  0  0
    1.8318   -2.1332   -1.7388 Br  0  0  0  0  0  0  0  0  0  0  0  0
    1.3392    0.1968   -0.0773 C   0  0  0  0  0  0  0  0  0  0  0  0
    2.8102    0.5070   -0.0759 C   0  0  0  0  0  0  0  0  0  0  0  0
    3.4096   -0.1469    1.0308 O   0  0  0  0  0  0  0  0  0  0  0  0
    0.4787    1.0325    0.6579 C   0  0  0  0  0  0  0  0  0  0  0  0
   -0.8992    0.7894    0.7161 C   0  0  0  0  0  0  0  0  0  0  0  0
   -1.9581    2.0190    1.7033 Br  0  0  0  0  0  0  0  0  0  0  0  0
   -3.2537    1.0584   -0.8528 H   0  0  0  0  0  0  0  0  0  0  0  0
   -3.3735   -0.4534    1.0507 H   0  0  0  0  0  0  0  0  0  0  0  0
   -3.1054   -1.6823   -0.1675 H   0  0  0  0  0  0  0  0  0  0  0  0
   -1.0133   -2.0015   -1.2133 H   0  0  0  0  0  0  0  0  0  0  0  0
    3.3035    0.1970   -1.0014 H   0  0  0  0  0  0  0  0  0  0  0  0
    2.9759    1.5857    0.0242 H   0  0  0  0  0  0  0  0  0  0  0  0
    4.3689   -0.0153    0.9499 H   0  0  0  0  0  0  0  0  0  0  0  0
    0.8977    1.8812    1.1969 H   0  0  0  0  0  0  0  0  0  0  0  0
  1  2  1  0
  2  3  1  0
  3  4  2  0
  4  5  1  0
  5  6  1  0
  5  7  2  0
  7  8  1  0
  8  9  1  0
  7 10  1  0
 10 11  2  0
 11 12  1  0
 11  3  1  0
  1 13  1  0
  2 14  1  0
  2 15  1  0
  4 16  1  0
  8 17  1  0
  8 18  1  0
  9 19  1  0
 10 20  1  0
M  END
