
     RDKit          3D

 14 14  0  0  0  0  0  0  0  0999 V2000
   -2.2043   -0.7468    0.1802 N   0  0  0  0  0  0  0  0  0  0  0  0
   -0.8881   -0.2818    0.0128 C   0  0  0  0  0  0  0  0  0  0  0  0
    0.1569   -1.2118   -0.0472 C   0  0  0  0  0  0  0  0  0  0  0  0
    1.4856   -0.7836   -0.0915 C   0  0  0  0  0  0  0  0  0  0  0  0
    2.8771   -2.0591   -0.2068 Br  0  0  0  0  0  0  0  0  0  0  0  0
    1.7976    0.5727   -0.0397 C   0  0  0  0  0  0  0  0  0  0  0  0
    0.7710    1.5095    0.0732 C   0  0  0  0  0  0  0  0  0  0  0  0
   -0.5599    1.0822    0.1183 C   0  0  0  0  0  0  0  0  0  0  0  0
   -1.9162    2.4026    0.2925 Br  0  0  0  0  0  0  0  0  0  0  0  0
   -2.9049   -0.0422   -0.0403 H   0  0  0  0  0  0  0  0  0  0  0  0
   -2.3942   -1.6412   -0.2601 H   0  0  0  0  0  0  0  0  0  0  0  0
   -0.0674   -2.2752   -0.0555 H   0  0  0  0  0  0  0  0  0  0  0  0
    2.8310    0.9079   -0.0704 H   0  0  0  0  0  0  0  0  0  0  0  0
    1.0160    2.5667    0.1346 H   0  0  0  0  0  0  0  0  0  0  0  0
  1  2  1  0
  2  3  2  0
  3  4  1  0
  4  5  1  0
  4  6  2  0
  6  7  1  0
  7  8  2  0
  8  9  1  0
  8  2  1  0
  1 10  1  0
  1 11  1  0
  3 12  1  0
  6 13  1  0
  7 14  1  0
M  END
