
     RDKit          3D

 14 14  0  0  0  0  0  0  0  0999 V2000
   -2.2003   -0.3848    0.1150 C   0  0  0  0  0  0  0  0  0  0  0  0
   -0.7147   -0.1833    0.0482 C   0  0  0  0  0  0  0  0  0  0  0  0
    0.0377   -1.2995    0.2417 N   0  0  0  0  0  0  0  0  0  0  0  0
    1.3819   -1.1731    0.1917 C   0  0  0  0  0  0  0  0  0  0  0  0
    2.4230   -2.7340    0.4625 Br  0  0  0  0  0  0  0  0  0  0  0  0
    2.0273    0.0294   -0.0453 C   0  0  0  0  0  0  0  0  0  0  0  0
    1.2495    1.1673   -0.2423 C   0  0  0  0  0  0  0  0  0  0  0  0
   -0.1404    1.0659   -0.1961 C   0  0  0  0  0  0  0  0  0  0  0  0
   -1.1652    2.6349   -0.4687 Br  0  0  0  0  0  0  0  0  0  0  0  0
   -2.4396   -1.4347    0.3156 H   0  0  0  0  0  0  0  0  0  0  0  0
   -2.6338    0.2134    0.9224 H   0  0  0  0  0  0  0  0  0  0  0  0
   -2.6683   -0.1148   -0.8366 H   0  0  0  0  0  0  0  0  0  0  0  0
    3.1096    0.0911   -0.0781 H   0  0  0  0  0  0  0  0  0  0  0  0
    1.7333    2.1222   -0.4300 H   0  0  0  0  0  0  0  0  0  0  0  0
  1  2  1  0
  2  3  2  0
  3  4  1  0
  4  5  1  0
  4  6  2  0
  6  7  1  0
  7  8  2  0
  8  9  1  0
  8  2  1  0
  1 10  1  0
  1 11  1  0
  1 12  1  0
  6 13  1  0
  7 14  1  0
M  END
