
     RDKit          3D

 12 12  0  0  0  0  0  0  0  0999 V2000
   -1.5166   -1.9414   -0.1318 O   0  0  0  0  0  0  0  0  0  0  0  0
   -1.4290   -0.7249   -0.0349 C   0  0  0  0  0  0  0  0  0  0  0  0
   -2.5555    0.0086    0.0429 O   0  0  0  0  0  0  0  0  0  0  0  0
   -0.1687    0.0030    0.0030 C   0  0  0  0  0  0  0  0  0  0  0  0
    1.1085   -0.6765   -0.0730 C   0  0  0  0  0  0  0  0  0  0  0  0
    2.1686    0.1893   -0.0205 C   0  0  0  0  0  0  0  0  0  0  0  0
    3.9935   -0.3681   -0.0957 Br  0  0  0  0  0  0  0  0  0  0  0  0
    1.6949    1.8027    0.1176 S   0  0  0  0  0  0  0  0  0  0  0  0
    0.0429    1.3668    0.1097 C   0  0  0  0  0  0  0  0  0  0  0  0
   -1.2808    2.7537    0.2436 Br  0  0  0  0  0  0  0  0  0  0  0  0
   -3.2691   -0.6604    0.0007 H   0  0  0  0  0  0  0  0  0  0  0  0
    1.2113   -1.7529   -0.1616 H   0  0  0  0  0  0  0  0  0  0  0  0
  1  2  2  0
  2  3  1  0
  2  4  1  0
  4  5  1  0
  5  6  2  0
  6  7  1  0
  6  8  1  0
  8  9  1  0
  9 10  1  0
  9  4  2  0
  3 11  1  0
  5 12  1  0
M  END
