
     RDKit          3D

 14 15  0  0  0  0  0  0  0  0999 V2000
    4.3848   -0.3407   -0.5366 Br  0  0  0  0  0  0  0  0  0  0  0  0
    2.5155   -0.2168   -0.3104 C   0  0  0  0  0  0  0  0  0  0  0  0
    1.7053   -1.3127   -0.3519 N   0  0  0  0  0  0  0  0  0  0  0  0
    0.5127   -0.8016   -0.1551 C   0  0  0  0  0  0  0  0  0  0  0  0
   -0.7703   -1.4094   -0.0840 C   0  0  0  0  0  0  0  0  0  0  0  0
   -1.8574   -0.6469    0.1313 C   0  0  0  0  0  0  0  0  0  0  0  0
   -1.7513    0.7933    0.2941 C   0  0  0  0  0  0  0  0  0  0  0  0
   -0.5421    1.3852    0.2293 C   0  0  0  0  0  0  0  0  0  0  0  0
   -0.3471    3.2319    0.4313 Br  0  0  0  0  0  0  0  0  0  0  0  0
    0.5974    0.5887    0.0040 N   0  0  0  0  0  0  0  0  0  0  0  0
    1.9055    0.9495   -0.1000 N   0  0  0  0  0  0  0  0  0  0  0  0
   -0.8442   -2.4848   -0.2061 H   0  0  0  0  0  0  0  0  0  0  0  0
   -2.8464   -1.0941    0.1888 H   0  0  0  0  0  0  0  0  0  0  0  0
   -2.6625    1.3584    0.4655 H   0  0  0  0  0  0  0  0  0  0  0  0
  1  2  1  0
  2  3  1  0
  3  4  2  0
  4  5  1  0
  5  6  2  0
  6  7  1  0
  7  8  2  0
  8  9  1  0
  8 10  1  0
 10 11  1  0
 11  2  2  0
 10  4  1  0
  5 12  1  0
  6 13  1  0
  7 14  1  0
M  END
