
     RDKit          3D

 18 18  0  0  0  0  0  0  0  0999 V2000
    2.8880    0.3675   -0.2516 C   0  0  0  0  0  0  0  0  0  0  0  0
    1.4062    0.1569   -0.1155 C   0  0  0  0  0  0  0  0  0  0  0  0
    0.5335    1.2163   -0.4112 C   0  0  0  0  0  0  0  0  0  0  0  0
   -0.8540    1.0628   -0.2977 C   0  0  0  0  0  0  0  0  0  0  0  0
   -1.9388    2.5634   -0.7236 Br  0  0  0  0  0  0  0  0  0  0  0  0
   -1.4062   -0.1569    0.1155 C   0  0  0  0  0  0  0  0  0  0  0  0
   -2.8880   -0.3675    0.2516 C   0  0  0  0  0  0  0  0  0  0  0  0
   -0.5335   -1.2163    0.4112 C   0  0  0  0  0  0  0  0  0  0  0  0
    0.8540   -1.0628    0.2977 C   0  0  0  0  0  0  0  0  0  0  0  0
    1.9388   -2.5634    0.7236 Br  0  0  0  0  0  0  0  0  0  0  0  0
    3.3860    0.2207    0.7122 H   0  0  0  0  0  0  0  0  0  0  0  0
    3.1198    1.3848   -0.5855 H   0  0  0  0  0  0  0  0  0  0  0  0
    3.3064   -0.3208   -0.9929 H   0  0  0  0  0  0  0  0  0  0  0  0
    0.9406    2.1729   -0.7341 H   0  0  0  0  0  0  0  0  0  0  0  0
   -3.3064    0.3208    0.9929 H   0  0  0  0  0  0  0  0  0  0  0  0
   -3.3860   -0.2207   -0.7121 H   0  0  0  0  0  0  0  0  0  0  0  0
   -3.1198   -1.3848    0.5855 H   0  0  0  0  0  0  0  0  0  0  0  0
   -0.9406   -2.1729    0.7341 H   0  0  0  0  0  0  0  0  0  0  0  0
  1  2  1  0
  2  3  2  0
  3  4  1  0
  4  5  1  0
  4  6  2  0
  6  7  1  0
  6  8  1  0
  8  9  2  0
  9 10  1  0
  9  2  1  0
  1 11  1  0
  1 12  1  0
  1 13  1  0
  3 14  1  0
  7 15  1  0
  7 16  1  0
  7 17  1  0
  8 18  1  0
M  END
