
     RDKit          3D

 15 15  0  0  0  0  0  0  0  0999 V2000
    2.3766    0.4694   -1.6872 O   0  0  0  0  0  0  0  0  0  0  0  0
    1.9863   -0.0485   -0.6589 C   0  0  0  0  0  0  0  0  0  0  0  0
    2.7921   -0.7693    0.1365 O   0  0  0  0  0  0  0  0  0  0  0  0
    0.5912   -0.0861   -0.1949 C   0  0  0  0  0  0  0  0  0  0  0  0
   -0.3631   -0.5282   -1.1228 C   0  0  0  0  0  0  0  0  0  0  0  0
   -1.7040   -0.5979   -0.7531 C   0  0  0  0  0  0  0  0  0  0  0  0
   -2.9900   -1.2063   -1.9970 Br  0  0  0  0  0  0  0  0  0  0  0  0
   -2.1052   -0.2221    0.5275 C   0  0  0  0  0  0  0  0  0  0  0  0
   -1.1572    0.2383    1.4451 C   0  0  0  0  0  0  0  0  0  0  0  0
    0.1940    0.3139    1.0868 C   0  0  0  0  0  0  0  0  0  0  0  0
    1.3928    1.0334    2.3711 Br  0  0  0  0  0  0  0  0  0  0  0  0
    3.6754   -0.7063   -0.2834 H   0  0  0  0  0  0  0  0  0  0  0  0
   -0.0513   -0.8182   -2.1242 H   0  0  0  0  0  0  0  0  0  0  0  0
   -3.1518   -0.2741    0.8187 H   0  0  0  0  0  0  0  0  0  0  0  0
   -1.4857    0.5456    2.4359 H   0  0  0  0  0  0  0  0  0  0  0  0
  1  2  2  0
  2  3  1  0
  2  4  1  0
  4  5  2  0
  5  6  1  0
  6  7  1  0
  6  8  2  0
  8  9  1  0
  9 10  2  0
 10 11  1  0
 10  4  1  0
  3 12  1  0
  5 13  1  0
  8 14  1  0
  9 15  1  0
M  END
