
     RDKit          3D

  8  8  0  0  0  0  0  0  0  0999 V2000
   -2.8248   -1.0400   -0.0054 Br  0  0  0  0  0  0  0  0  0  0  0  0
   -1.0111   -0.4730   -0.1135 C   0  0  0  0  0  0  0  0  0  0  0  0
   -0.6071    0.8232   -0.3233 C   0  0  0  0  0  0  0  0  0  0  0  0
    0.7646    1.0052   -0.3658 N   0  0  0  0  0  0  0  0  0  0  0  0
    1.3501   -0.1581   -0.1870 C   0  0  0  0  0  0  0  0  0  0  0  0
    3.2614   -0.3271   -0.1792 Br  0  0  0  0  0  0  0  0  0  0  0  0
    0.3259   -1.5090    0.0377 S   0  0  0  0  0  0  0  0  0  0  0  0
   -1.2588    1.6788   -0.4527 H   0  0  0  0  0  0  0  0  0  0  0  0
  1  2  1  0
  2  3  2  0
  3  4  1  0
  4  5  2  0
  5  6  1  0
  5  7  1  0
  7  2  1  0
  3  8  1  0
M  END
