
     RDKit          3D

 12 12  0  0  0  0  0  0  0  0999 V2000
    2.1859    0.8947    0.1902 O   0  0  0  0  0  0  0  0  0  0  0  0
    0.9562    0.3146    0.0519 C   0  0  0  0  0  0  0  0  0  0  0  0
   -0.1484    1.0614    0.4443 C   0  0  0  0  0  0  0  0  0  0  0  0
   -1.4139    0.5010    0.3170 C   0  0  0  0  0  0  0  0  0  0  0  0
   -2.9476    1.4675    0.8332 Br  0  0  0  0  0  0  0  0  0  0  0  0
   -1.5249   -0.7836   -0.1976 C   0  0  0  0  0  0  0  0  0  0  0  0
   -0.4664   -1.5345   -0.5881 N   0  0  0  0  0  0  0  0  0  0  0  0
    0.7559   -0.9700   -0.4556 C   0  0  0  0  0  0  0  0  0  0  0  0
    2.2517   -2.0086   -0.9982 Br  0  0  0  0  0  0  0  0  0  0  0  0
    2.8570    0.2594   -0.1223 H   0  0  0  0  0  0  0  0  0  0  0  0
   -0.0130    2.0627    0.8416 H   0  0  0  0  0  0  0  0  0  0  0  0
   -2.4923   -1.2646   -0.3164 H   0  0  0  0  0  0  0  0  0  0  0  0
  1  2  1  0
  2  3  2  0
  3  4  1  0
  4  5  1  0
  4  6  2  0
  6  7  1  0
  7  8  2  0
  8  9  1  0
  8  2  1  0
  1 10  1  0
  3 11  1  0
  6 12  1  0
M  END
