
     RDKit          3D

 15 15  0  0  0  0  0  0  0  0999 V2000
    2.2195   -0.2498   -0.0746 C   0  0  0  0  0  0  0  0  0  0  0  0
    0.7293   -0.0602   -0.0202 C   0  0  0  0  0  0  0  0  0  0  0  0
   -0.1095   -1.1684   -0.2305 C   0  0  0  0  0  0  0  0  0  0  0  0
   -1.4975   -1.0262   -0.1867 C   0  0  0  0  0  0  0  0  0  0  0  0
   -2.6040   -2.5321   -0.4730 Br  0  0  0  0  0  0  0  0  0  0  0  0
   -2.0738    0.2150    0.0660 C   0  0  0  0  0  0  0  0  0  0  0  0
   -1.2538    1.3239    0.2768 C   0  0  0  0  0  0  0  0  0  0  0  0
    0.1385    1.1886    0.2342 C   0  0  0  0  0  0  0  0  0  0  0  0
    1.1787    2.7499    0.5322 Br  0  0  0  0  0  0  0  0  0  0  0  0
    2.6745    0.0138    0.8855 H   0  0  0  0  0  0  0  0  0  0  0  0
    2.6547    0.3623   -0.8709 H   0  0  0  0  0  0  0  0  0  0  0  0
    2.4837   -1.2920   -0.2843 H   0  0  0  0  0  0  0  0  0  0  0  0
    0.3234   -2.1466   -0.4295 H   0  0  0  0  0  0  0  0  0  0  0  0
   -3.1538    0.3307    0.1012 H   0  0  0  0  0  0  0  0  0  0  0  0
   -1.7099    2.2912    0.4738 H   0  0  0  0  0  0  0  0  0  0  0  0
  1  2  1  0
  2  3  2  0
  3  4  1  0
  4  5  1  0
  4  6  2  0
  6  7  1  0
  7  8  2  0
  8  9  1  0
  8  2  1  0
  1 10  1  0
  1 11  1  0
  1 12  1  0
  3 13  1  0
  6 14  1  0
  7 15  1  0
M  END
