
     RDKit          3D

 11 11  0  0  0  0  0  0  0  0999 V2000
   -3.1501    0.3812   -0.0609 Br  0  0  0  0  0  0  0  0  0  0  0  0
   -1.2937    0.0611   -0.0202 C   0  0  0  0  0  0  0  0  0  0  0  0
   -0.3913    1.1174   -0.0617 C   0  0  0  0  0  0  0  0  0  0  0  0
    0.9756    0.8428   -0.0297 C   0  0  0  0  0  0  0  0  0  0  0  0
    1.3839   -0.4830    0.0427 C   0  0  0  0  0  0  0  0  0  0  0  0
    3.2400   -0.8671    0.0867 Br  0  0  0  0  0  0  0  0  0  0  0  0
    0.5256   -1.5264    0.0842 N   0  0  0  0  0  0  0  0  0  0  0  0
   -0.7957   -1.2307    0.0517 C   0  0  0  0  0  0  0  0  0  0  0  0
   -0.7361    2.1461   -0.1183 H   0  0  0  0  0  0  0  0  0  0  0  0
    1.6979    1.6516   -0.0611 H   0  0  0  0  0  0  0  0  0  0  0  0
   -1.4560   -2.0928    0.0866 H   0  0  0  0  0  0  0  0  0  0  0  0
  1  2  1  0
  2  3  2  0
  3  4  1  0
  4  5  2  0
  5  6  1  0
  5  7  1  0
  7  8  2  0
  8  2  1  0
  3  9  1  0
  4 10  1  0
  8 11  1  0
M  END
