
     RDKit          3D

 37 38  0  0  0  0  0  0  0  0999 V2000
   -4.1700    1.5145   -1.0454 C   0  0  0  0  0  0  0  0  0  0  0  0
   -4.1354    1.0556    0.4043 C   0  0  0  0  0  0  0  0  0  0  0  0
   -3.5273   -0.3362    0.5915 C   0  0  0  0  0  0  0  0  0  0  0  0
   -2.0426   -0.4029    0.2226 C   0  0  0  0  0  0  0  0  0  0  0  0
   -1.4590   -1.7830    0.5233 C   0  0  0  0  0  0  0  0  0  0  0  0
    0.0609   -1.8795    0.3483 C   0  0  0  0  0  0  0  0  0  0  0  0
    0.5610   -1.6764   -1.0874 C   0  0  0  0  0  0  0  0  0  0  0  0
    0.9811   -0.2429   -1.4349 C   0  0  0  0  0  0  0  0  0  0  0  0
    2.1482    0.2015   -0.6981 N   0  0  0  0  0  0  0  0  0  0  0  0
    3.4368   -0.2156   -1.0016 C   0  0  0  0  0  0  0  0  0  0  0  0
    3.8001   -0.9780   -1.8797 O   0  0  0  0  0  0  0  0  0  0  0  0
    4.2702    0.4596   -0.0451 C   0  0  0  0  0  0  0  0  0  0  0  0
    5.5899    0.5433    0.2761 C   0  0  0  0  0  0  0  0  0  0  0  0
    5.8304    1.6052    1.6006 S   0  0  0  0  0  0  0  0  0  0  0  0
    4.1534    1.9396    1.7241 C   0  0  0  0  0  0  0  0  0  0  0  0
    3.4515    1.2557    0.7800 C   0  0  0  0  0  0  0  0  0  0  0  0
    2.0861    1.0978    0.3596 C   0  0  0  0  0  0  0  0  0  0  0  0
    1.1071    1.6420    0.8386 O   0  0  0  0  0  0  0  0  0  0  0  0
    3.4154    3.1173    3.0255 Br  0  0  0  0  0  0  0  0  0  0  0  0
    7.0099   -0.3760   -0.5976 Br  0  0  0  0  0  0  0  0  0  0  0  0
   -3.1622    1.6675   -1.4422 H   0  0  0  0  0  0  0  0  0  0  0  0
   -4.7044    2.4667   -1.1248 H   0  0  0  0  0  0  0  0  0  0  0  0
   -4.6847    0.7836   -1.6770 H   0  0  0  0  0  0  0  0  0  0  0  0
   -3.5833    1.7877    1.0051 H   0  0  0  0  0  0  0  0  0  0  0  0
   -5.1621    1.0400    0.7890 H   0  0  0  0  0  0  0  0  0  0  0  0
   -3.6501   -0.6233    1.6432 H   0  0  0  0  0  0  0  0  0  0  0  0
   -4.0894   -1.0666   -0.0032 H   0  0  0  0  0  0  0  0  0  0  0  0
   -1.4918    0.3618    0.7820 H   0  0  0  0  0  0  0  0  0  0  0  0
   -1.9274   -0.1876   -0.8438 H   0  0  0  0  0  0  0  0  0  0  0  0
   -1.9475   -2.5327   -0.1115 H   0  0  0  0  0  0  0  0  0  0  0  0
   -1.6940   -2.0539    1.5604 H   0  0  0  0  0  0  0  0  0  0  0  0
    0.3485   -2.8934    0.6567 H   0  0  0  0  0  0  0  0  0  0  0  0
    0.5610   -1.2015    1.0471 H   0  0  0  0  0  0  0  0  0  0  0  0
    1.4256   -2.3350   -1.2397 H   0  0  0  0  0  0  0  0  0  0  0  0
   -0.2052   -2.0088   -1.7979 H   0  0  0  0  0  0  0  0  0  0  0  0
    1.2362   -0.2080   -2.5008 H   0  0  0  0  0  0  0  0  0  0  0  0
    0.1629    0.4621   -1.2695 H   0  0  0  0  0  0  0  0  0  0  0  0
  1  2  1  0
  2  3  1  0
  3  4  1  0
  4  5  1  0
  5  6  1  0
  6  7  1  0
  7  8  1  0
  8  9  1  0
  9 10  1  0
 10 11  2  0
 10 12  1  0
 12 13  2  0
 13 14  1  0
 14 15  1  0
 15 16  2  0
 16 17  1  0
 17 18  2  0
 15 19  1  0
 13 20  1  0
 17  9  1  0
 16 12  1  0
  1 21  1  0
  1 22  1  0
  1 23  1  0
  2 24  1  0
  2 25  1  0
  3 26  1  0
  3 27  1  0
  4 28  1  0
  4 29  1  0
  5 30  1  0
  5 31  1  0
  6 32  1  0
  6 33  1  0
  7 34  1  0
  7 35  1  0
  8 36  1  0
  8 37  1  0
M  END
