
     RDKit          3D

 13 13  0  0  0  0  0  0  0  0999 V2000
    2.0829   -1.7332    0.7692 O   0  0  0  0  0  0  0  0  0  0  0  0
    1.4644   -1.2084   -0.1608 N   0  0  0  0  0  4  0  0  0  0  0  0
    1.4240   -1.5877   -1.3351 O   0  0  0  0  0  1  0  0  0  0  0  0
    0.6995   -0.0420    0.1435 C   0  0  0  0  0  0  0  0  0  0  0  0
    1.2249    1.1064    0.6897 C   0  0  0  0  0  0  0  0  0  0  0  0
    3.0612    1.4169    1.1457 Br  0  0  0  0  0  0  0  0  0  0  0  0
    0.0513    2.3208    0.9074 S   0  0  0  0  0  0  0  0  0  0  0  0
   -1.1711    1.3267    0.2616 C   0  0  0  0  0  0  0  0  0  0  0  0
   -2.9871    1.9343    0.1645 Br  0  0  0  0  0  0  0  0  0  0  0  0
   -0.6984    0.0932   -0.1234 C   0  0  0  0  0  0  0  0  0  0  0  0
   -1.5119   -0.9399   -0.6792 N   0  0  0  0  0  4  0  0  0  0  0  0
   -2.1360   -0.6710   -1.7091 O   0  0  0  0  0  0  0  0  0  0  0  0
   -1.5037   -2.0161   -0.0739 O   0  0  0  0  0  1  0  0  0  0  0  0
  1  2  2  0
  2  3  1  0
  2  4  1  0
  4  5  2  0
  5  6  1  0
  5  7  1  0
  7  8  1  0
  8  9  1  0
  8 10  2  0
 10 11  1  0
 11 12  2  0
 11 13  1  0
 10  4  1  0
M  CHG  4   2   1   3  -1  11   1  13  -1
M  END
