
     RDKit          3D

 15 15  0  0  0  0  0  0  0  0999 V2000
   -2.6560    1.1950   -0.6562 O   0  0  0  0  0  0  0  0  0  0  0  0
   -2.0637    0.3707    0.0127 C   0  0  0  0  0  0  0  0  0  0  0  0
   -2.6588   -0.3228    0.9958 O   0  0  0  0  0  0  0  0  0  0  0  0
   -0.6198    0.0967   -0.0468 C   0  0  0  0  0  0  0  0  0  0  0  0
    0.2302    1.2087    0.0433 C   0  0  0  0  0  0  0  0  0  0  0  0
    1.6104    1.0269    0.0018 C   0  0  0  0  0  0  0  0  0  0  0  0
    2.7582    2.5221    0.1369 Br  0  0  0  0  0  0  0  0  0  0  0  0
    2.1519   -0.2494   -0.1389 C   0  0  0  0  0  0  0  0  0  0  0  0
    1.3045   -1.3549   -0.2498 C   0  0  0  0  0  0  0  0  0  0  0  0
   -0.0848   -1.1868   -0.2101 C   0  0  0  0  0  0  0  0  0  0  0  0
   -1.1533   -2.7367   -0.4560 Br  0  0  0  0  0  0  0  0  0  0  0  0
   -3.5958   -0.0369    0.9682 H   0  0  0  0  0  0  0  0  0  0  0  0
   -0.1918    2.2061    0.1493 H   0  0  0  0  0  0  0  0  0  0  0  0
    3.2293   -0.3944   -0.1730 H   0  0  0  0  0  0  0  0  0  0  0  0
    1.7395   -2.3442   -0.3772 H   0  0  0  0  0  0  0  0  0  0  0  0
  1  2  2  0
  2  3  1  0
  2  4  1  0
  4  5  2  0
  5  6  1  0
  6  7  1  0
  6  8  2  0
  8  9  1  0
  9 10  2  0
 10 11  1  0
 10  4  1  0
  3 12  1  0
  5 13  1  0
  8 14  1  0
  9 15  1  0
M  END
