
     RDKit          3D

 14 14  0  0  0  0  0  0  0  0999 V2000
    2.8609   -0.8057   -0.8345 O   0  0  0  0  0  0  0  0  0  0  0  0
    2.1176   -0.9340    0.1460 N   0  0  0  0  0  4  0  0  0  0  0  0
    2.3739   -1.5653    1.1789 O   0  0  0  0  0  1  0  0  0  0  0  0
    0.8092   -0.3323    0.0601 C   0  0  0  0  0  0  0  0  0  0  0  0
   -0.2741   -1.1822   -0.1944 C   0  0  0  0  0  0  0  0  0  0  0  0
   -1.5460   -0.6261   -0.2889 C   0  0  0  0  0  0  0  0  0  0  0  0
   -3.0324   -1.7403   -0.6344 Br  0  0  0  0  0  0  0  0  0  0  0  0
   -1.7338    0.7486   -0.1308 C   0  0  0  0  0  0  0  0  0  0  0  0
   -0.6393    1.5821    0.1284 C   0  0  0  0  0  0  0  0  0  0  0  0
    0.6471    1.0442    0.2274 C   0  0  0  0  0  0  0  0  0  0  0  0
    2.0756    2.2307    0.6086 Br  0  0  0  0  0  0  0  0  0  0  0  0
   -0.1236   -2.2524   -0.3158 H   0  0  0  0  0  0  0  0  0  0  0  0
   -2.7292    1.1825   -0.2046 H   0  0  0  0  0  0  0  0  0  0  0  0
   -0.8059    2.6505    0.2539 H   0  0  0  0  0  0  0  0  0  0  0  0
  1  2  2  0
  2  3  1  0
  2  4  1  0
  4  5  2  0
  5  6  1  0
  6  7  1  0
  6  8  2  0
  8  9  1  0
  9 10  2  0
 10 11  1  0
 10  4  1  0
  5 12  1  0
  8 13  1  0
  9 14  1  0
M  CHG  2   2   1   3  -1
M  END
