
     RDKit          3D

 16 16  0  0  0  0  0  0  0  0999 V2000
   -2.7824    0.4576    0.0169 N   0  0  0  0  0  0  0  0  0  0  0  0
   -1.4077    0.1764   -0.0573 C   0  0  0  0  0  0  0  0  0  0  0  0
   -0.5458    1.1393   -0.5899 C   0  0  0  0  0  0  0  0  0  0  0  0
    0.8405    0.9464   -0.5670 C   0  0  0  0  0  0  0  0  0  0  0  0
    1.9403    2.2774   -1.3645 Br  0  0  0  0  0  0  0  0  0  0  0  0
    1.4077   -0.1764    0.0573 C   0  0  0  0  0  0  0  0  0  0  0  0
    2.7824   -0.4576   -0.0169 N   0  0  0  0  0  0  0  0  0  0  0  0
    0.5458   -1.1393    0.5899 C   0  0  0  0  0  0  0  0  0  0  0  0
   -0.8405   -0.9464    0.5670 C   0  0  0  0  0  0  0  0  0  0  0  0
   -1.9403   -2.2773    1.3646 Br  0  0  0  0  0  0  0  0  0  0  0  0
   -3.3497   -0.3738    0.1689 H   0  0  0  0  0  0  0  0  0  0  0  0
   -3.1348    1.0400   -0.7360 H   0  0  0  0  0  0  0  0  0  0  0  0
   -0.9566    2.0438   -1.0305 H   0  0  0  0  0  0  0  0  0  0  0  0
    3.1348   -1.0400    0.7360 H   0  0  0  0  0  0  0  0  0  0  0  0
    3.3497    0.3738   -0.1689 H   0  0  0  0  0  0  0  0  0  0  0  0
    0.9566   -2.0438    1.0305 H   0  0  0  0  0  0  0  0  0  0  0  0
  1  2  1  0
  2  3  2  0
  3  4  1  0
  4  5  1  0
  4  6  2  0
  6  7  1  0
  6  8  1  0
  8  9  2  0
  9 10  1  0
  9  2  1  0
  1 11  1  0
  1 12  1  0
  3 13  1  0
  7 14  1  0
  7 15  1  0
  8 16  1  0
M  END
