
     RDKit          3D

 18 18  0  0  0  0  0  0  0  0999 V2000
    2.9168   -0.1757   -0.0186 C   0  0  0  0  0  0  0  0  0  0  0  0
    1.4183   -0.0625   -0.0100 C   0  0  0  0  0  0  0  0  0  0  0  0
    0.6431   -1.2318    0.0458 C   0  0  0  0  0  0  0  0  0  0  0  0
   -0.7562   -1.1716    0.0558 C   0  0  0  0  0  0  0  0  0  0  0  0
   -1.7031   -2.8169    0.1330 Br  0  0  0  0  0  0  0  0  0  0  0  0
   -1.4183    0.0625    0.0100 C   0  0  0  0  0  0  0  0  0  0  0  0
   -2.9168    0.1757    0.0186 C   0  0  0  0  0  0  0  0  0  0  0  0
   -0.6431    1.2318   -0.0459 C   0  0  0  0  0  0  0  0  0  0  0  0
    0.7562    1.1716   -0.0558 C   0  0  0  0  0  0  0  0  0  0  0  0
    1.7031    2.8169   -0.1330 Br  0  0  0  0  0  0  0  0  0  0  0  0
    3.3284    0.2560   -0.9365 H   0  0  0  0  0  0  0  0  0  0  0  0
    3.2405   -1.2214    0.0223 H   0  0  0  0  0  0  0  0  0  0  0  0
    3.3443    0.3309    0.8526 H   0  0  0  0  0  0  0  0  0  0  0  0
    1.1364   -2.2016    0.0821 H   0  0  0  0  0  0  0  0  0  0  0  0
   -3.3443   -0.3309   -0.8526 H   0  0  0  0  0  0  0  0  0  0  0  0
   -3.2405    1.2214   -0.0223 H   0  0  0  0  0  0  0  0  0  0  0  0
   -3.3284   -0.2560    0.9365 H   0  0  0  0  0  0  0  0  0  0  0  0
   -1.1364    2.2016   -0.0821 H   0  0  0  0  0  0  0  0  0  0  0  0
  1  2  1  0
  2  3  2  0
  3  4  1  0
  4  5  1  0
  4  6  2  0
  6  7  1  0
  6  8  1  0
  8  9  2  0
  9 10  1  0
  9  2  1  0
  1 11  1  0
  1 12  1  0
  1 13  1  0
  3 14  1  0
  7 15  1  0
  7 16  1  0
  7 17  1  0
  8 18  1  0
M  END
