
     RDKit          3D

  9  9  0  0  0  0  0  0  0  0999 V2000
   -2.8592   -1.1548   -0.4651 Br  0  0  0  0  0  0  0  0  0  0  0  0
   -1.0845   -0.5416   -0.1616 C   0  0  0  0  0  0  0  0  0  0  0  0
   -0.6633    0.7639   -0.2780 C   0  0  0  0  0  0  0  0  0  0  0  0
    0.7188    0.7621    0.0362 C   0  0  0  0  0  0  0  0  0  0  0  0
    1.0450   -0.5444    0.3225 C   0  0  0  0  0  0  0  0  0  0  0  0
    2.7749   -1.1621    0.8158 Br  0  0  0  0  0  0  0  0  0  0  0  0
   -0.0488   -1.3429    0.2038 O   0  0  0  0  0  0  0  0  0  0  0  0
   -1.2745    1.6116   -0.5545 H   0  0  0  0  0  0  0  0  0  0  0  0
    1.3915    1.6081    0.0516 H   0  0  0  0  0  0  0  0  0  0  0  0
  1  2  1  0
  2  3  2  0
  3  4  1  0
  4  5  2  0
  5  6  1  0
  5  7  1  0
  7  2  1  0
  3  8  1  0
  4  9  1  0
M  END
