
     RDKit          3D

 14 14  0  0  0  0  0  0  0  0999 V2000
   -1.6116   -2.7107   -0.2856 O   0  0  0  0  0  0  0  0  0  0  0  0
   -1.8124   -1.5008   -0.2650 C   0  0  0  0  0  0  0  0  0  0  0  0
   -0.7034   -0.5345   -0.1011 C   0  0  0  0  0  0  0  0  0  0  0  0
    0.5965   -1.0484    0.0312 C   0  0  0  0  0  0  0  0  0  0  0  0
    1.6763   -0.1819    0.1881 C   0  0  0  0  0  0  0  0  0  0  0  0
    3.4236   -0.8795    0.3657 Br  0  0  0  0  0  0  0  0  0  0  0  0
    1.4777    1.1960    0.2150 C   0  0  0  0  0  0  0  0  0  0  0  0
    0.1867    1.7120    0.0838 C   0  0  0  0  0  0  0  0  0  0  0  0
   -0.9074    0.8516   -0.0745 C   0  0  0  0  0  0  0  0  0  0  0  0
   -2.6155    1.6635   -0.2434 Br  0  0  0  0  0  0  0  0  0  0  0  0
   -2.8349   -1.1094   -0.3695 H   0  0  0  0  0  0  0  0  0  0  0  0
    0.7605   -2.1248    0.0112 H   0  0  0  0  0  0  0  0  0  0  0  0
    2.3180    1.8757    0.3373 H   0  0  0  0  0  0  0  0  0  0  0  0
    0.0459    2.7911    0.1067 H   0  0  0  0  0  0  0  0  0  0  0  0
  1  2  2  0
  2  3  1  0
  3  4  2  0
  4  5  1  0
  5  6  1  0
  5  7  2  0
  7  8  1  0
  8  9  2  0
  9 10  1  0
  9  3  1  0
  2 11  1  0
  4 12  1  0
  7 13  1  0
  8 14  1  0
M  END
