
     RDKit          3D

 18 18  0  0  0  0  0  0  0  0999 V2000
   -2.5319   -0.9209   -0.1556 C   0  0  0  0  0  0  0  0  0  0  0  0
   -1.2213   -0.1921   -0.0258 C   0  0  0  0  0  0  0  0  0  0  0  0
   -1.2445    1.1862    0.2434 C   0  0  0  0  0  0  0  0  0  0  0  0
   -0.0565    1.9005    0.3714 C   0  0  0  0  0  0  0  0  0  0  0  0
   -0.1115    3.7554    0.7339 Br  0  0  0  0  0  0  0  0  0  0  0  0
    1.1718    1.2597    0.2347 C   0  0  0  0  0  0  0  0  0  0  0  0
    1.2304   -0.1175   -0.0347 C   0  0  0  0  0  0  0  0  0  0  0  0
    2.5820   -0.7654   -0.1740 C   0  0  0  0  0  0  0  0  0  0  0  0
    0.0249   -0.8397   -0.1641 C   0  0  0  0  0  0  0  0  0  0  0  0
    0.0806   -2.7146   -0.5305 Br  0  0  0  0  0  0  0  0  0  0  0  0
   -2.6127   -1.7035    0.6056 H   0  0  0  0  0  0  0  0  0  0  0  0
   -2.6295   -1.3602   -1.1534 H   0  0  0  0  0  0  0  0  0  0  0  0
   -3.3827   -0.2451   -0.0155 H   0  0  0  0  0  0  0  0  0  0  0  0
   -2.1957    1.7029    0.3533 H   0  0  0  0  0  0  0  0  0  0  0  0
    2.0907    1.8332    0.3378 H   0  0  0  0  0  0  0  0  0  0  0  0
    2.7157   -1.5415    0.5863 H   0  0  0  0  0  0  0  0  0  0  0  0
    2.6989   -1.1982   -1.1727 H   0  0  0  0  0  0  0  0  0  0  0  0
    3.3911   -0.0391   -0.0400 H   0  0  0  0  0  0  0  0  0  0  0  0
  1  2  1  0
  2  3  2  0
  3  4  1  0
  4  5  1  0
  4  6  2  0
  6  7  1  0
  7  8  1  0
  7  9  2  0
  9 10  1  0
  9  2  1  0
  1 11  1  0
  1 12  1  0
  1 13  1  0
  3 14  1  0
  6 15  1  0
  8 16  1  0
  8 17  1  0
  8 18  1  0
M  END
