
     RDKit          3D

 14 14  0  0  0  0  0  0  0  0999 V2000
   -2.0096   -0.5741   -0.0581 C   0  0  0  0  0  0  0  0  0  0  0  0
   -0.6032   -0.0552   -0.0098 C   0  0  0  0  0  0  0  0  0  0  0  0
    0.4711   -0.9567   -0.0579 C   0  0  0  0  0  0  0  0  0  0  0  0
    1.7770   -0.4812   -0.0134 C   0  0  0  0  0  0  0  0  0  0  0  0
    3.2365   -1.6714   -0.0764 Br  0  0  0  0  0  0  0  0  0  0  0  0
    1.9773    0.8841    0.0781 C   0  0  0  0  0  0  0  0  0  0  0  0
    0.9712    1.7862    0.1269 N   0  0  0  0  0  0  0  0  0  0  0  0
   -0.2956    1.3061    0.0825 C   0  0  0  0  0  0  0  0  0  0  0  0
   -1.6690    2.6236    0.1548 Br  0  0  0  0  0  0  0  0  0  0  0  0
   -2.5523   -0.2986    0.8517 H   0  0  0  0  0  0  0  0  0  0  0  0
   -2.0304   -1.6671   -0.1300 H   0  0  0  0  0  0  0  0  0  0  0  0
   -2.5342   -0.1815   -0.9349 H   0  0  0  0  0  0  0  0  0  0  0  0
    0.2859   -2.0259   -0.1298 H   0  0  0  0  0  0  0  0  0  0  0  0
    2.9752    1.3117    0.1163 H   0  0  0  0  0  0  0  0  0  0  0  0
  1  2  1  0
  2  3  2  0
  3  4  1  0
  4  5  1  0
  4  6  2  0
  6  7  1  0
  7  8  2  0
  8  9  1  0
  8  2  1  0
  1 10  1  0
  1 11  1  0
  1 12  1  0
  3 13  1  0
  6 14  1  0
M  END
