
     RDKit          3D

 17 17  0  0  0  0  0  0  0  0999 V2000
    1.6661   -1.3563    0.2651 C   0  0  0  0  0  0  0  0  0  0  0  0
    0.3658   -0.6082    0.1175 C   0  0  0  0  0  0  0  0  0  0  0  0
   -0.8651   -1.2776    0.2408 C   0  0  0  0  0  0  0  0  0  0  0  0
   -0.9706   -3.1432    0.5967 Br  0  0  0  0  0  0  0  0  0  0  0  0
   -2.0791   -0.5915    0.1054 C   0  0  0  0  0  0  0  0  0  0  0  0
   -2.0946    0.7791   -0.1564 C   0  0  0  0  0  0  0  0  0  0  0  0
   -0.8945    1.4764   -0.2852 C   0  0  0  0  0  0  0  0  0  0  0  0
   -1.0022    3.3388   -0.6413 Br  0  0  0  0  0  0  0  0  0  0  0  0
    0.3138    0.7795   -0.1477 C   0  0  0  0  0  0  0  0  0  0  0  0
    1.5483    1.5189   -0.2844 N   0  0  0  0  0  4  0  0  0  0  0  0
    2.0302    1.9990    0.7495 O   0  0  0  0  0  0  0  0  0  0  0  0
    2.0380    1.5849   -1.4191 O   0  0  0  0  0  1  0  0  0  0  0  0
    2.5491   -0.7233    0.1475 H   0  0  0  0  0  0  0  0  0  0  0  0
    1.7387   -2.1405   -0.4958 H   0  0  0  0  0  0  0  0  0  0  0  0
    1.7323   -1.8049    1.2618 H   0  0  0  0  0  0  0  0  0  0  0  0
   -3.0258   -1.1206    0.2030 H   0  0  0  0  0  0  0  0  0  0  0  0
   -3.0505    1.2894   -0.2573 H   0  0  0  0  0  0  0  0  0  0  0  0
  1  2  1  0
  2  3  2  0
  3  4  1  0
  3  5  1  0
  5  6  2  0
  6  7  1  0
  7  8  1  0
  7  9  2  0
  9 10  1  0
 10 11  2  0
 10 12  1  0
  9  2  1  0
  1 13  1  0
  1 14  1  0
  1 15  1  0
  5 16  1  0
  6 17  1  0
M  CHG  2  10   1  12  -1
M  END
