
     RDKit          3D

 17 17  0  0  0  0  0  0  0  0999 V2000
    2.7121    0.1498    0.2141 C   0  0  0  0  0  0  0  0  0  0  0  0
    1.2152    0.0449    0.0972 C   0  0  0  0  0  0  0  0  0  0  0  0
    0.4559    1.2268   -0.0148 C   0  0  0  0  0  0  0  0  0  0  0  0
   -0.9376    1.1817   -0.1258 C   0  0  0  0  0  0  0  0  0  0  0  0
   -1.8665    2.8253   -0.2999 Br  0  0  0  0  0  0  0  0  0  0  0  0
   -1.5647   -0.0618   -0.1214 C   0  0  0  0  0  0  0  0  0  0  0  0
   -2.9998   -0.1633   -0.2262 N   0  0  0  0  0  4  0  0  0  0  0  0
   -3.4546   -0.5276   -1.3178 O   0  0  0  0  0  0  0  0  0  0  0  0
   -3.6567    0.0815    0.7931 O   0  0  0  0  0  1  0  0  0  0  0  0
   -0.8410   -1.2540   -0.0175 C   0  0  0  0  0  0  0  0  0  0  0  0
    0.5491   -1.1938    0.0925 C   0  0  0  0  0  0  0  0  0  0  0  0
    1.4868   -2.8388    0.2339 Br  0  0  0  0  0  0  0  0  0  0  0  0
    3.0541   -0.2899    1.1564 H   0  0  0  0  0  0  0  0  0  0  0  0
    3.1976   -0.3538   -0.6279 H   0  0  0  0  0  0  0  0  0  0  0  0
    3.0430    1.1940    0.2037 H   0  0  0  0  0  0  0  0  0  0  0  0
    0.9635    2.1911   -0.0175 H   0  0  0  0  0  0  0  0  0  0  0  0
   -1.3564   -2.2122   -0.0221 H   0  0  0  0  0  0  0  0  0  0  0  0
  1  2  1  0
  2  3  2  0
  3  4  1  0
  4  5  1  0
  4  6  2  0
  6  7  1  0
  7  8  2  0
  7  9  1  0
  6 10  1  0
 10 11  2  0
 11 12  1  0
 11  2  1  0
  1 13  1  0
  1 14  1  0
  1 15  1  0
  3 16  1  0
 10 17  1  0
M  CHG  2   7   1   9  -1
M  END
