
     RDKit          3D

 14 14  0  0  0  0  0  0  0  0999 V2000
   -2.3330   -1.4502    0.1944 O   0  0  0  0  0  0  0  0  0  0  0  0
   -1.1901   -0.7068    0.0931 C   0  0  0  0  0  0  0  0  0  0  0  0
    0.0185   -1.3795    0.2558 C   0  0  0  0  0  0  0  0  0  0  0  0
    1.2133   -0.6676    0.1619 C   0  0  0  0  0  0  0  0  0  0  0  0
    2.8557   -1.5842    0.3835 Br  0  0  0  0  0  0  0  0  0  0  0  0
    1.1901    0.7068   -0.0931 C   0  0  0  0  0  0  0  0  0  0  0  0
    2.3330    1.4502   -0.1944 O   0  0  0  0  0  0  0  0  0  0  0  0
   -0.0185    1.3795   -0.2558 C   0  0  0  0  0  0  0  0  0  0  0  0
   -1.2133    0.6676   -0.1619 C   0  0  0  0  0  0  0  0  0  0  0  0
   -2.8557    1.5842   -0.3835 Br  0  0  0  0  0  0  0  0  0  0  0  0
   -3.0882   -0.8484    0.0592 H   0  0  0  0  0  0  0  0  0  0  0  0
    0.0155   -2.4477    0.4533 H   0  0  0  0  0  0  0  0  0  0  0  0
    3.0882    0.8484   -0.0592 H   0  0  0  0  0  0  0  0  0  0  0  0
   -0.0155    2.4477   -0.4533 H   0  0  0  0  0  0  0  0  0  0  0  0
  1  2  1  0
  2  3  2  0
  3  4  1  0
  4  5  1  0
  4  6  2  0
  6  7  1  0
  6  8  1  0
  8  9  2  0
  9 10  1  0
  9  2  1  0
  1 11  1  0
  3 12  1  0
  7 13  1  0
  8 14  1  0
M  END
