
     RDKit          3D

 18 18  0  0  0  0  0  0  0  0999 V2000
    3.5996   -0.8251   -0.7840 O   0  0  0  0  0  0  0  0  0  0  0  0
    2.8495    0.1098   -0.5835 C   0  0  0  0  0  0  0  0  0  0  0  0
    3.2900    1.3542   -0.3437 O   0  0  0  0  0  0  0  0  0  0  0  0
    1.3882    0.0183   -0.4412 C   0  0  0  0  0  0  0  0  0  0  0  0
    0.9069   -0.9312    0.4720 C   0  0  0  0  0  0  0  0  0  0  0  0
   -0.4694   -1.0816    0.6798 C   0  0  0  0  0  0  0  0  0  0  0  0
   -0.9999   -2.3452    1.9936 Br  0  0  0  0  0  0  0  0  0  0  0  0
   -1.3711   -0.2858   -0.0373 C   0  0  0  0  0  0  0  0  0  0  0  0
   -2.8372   -0.4210    0.1141 C   0  0  0  0  0  0  0  0  0  0  0  0
   -3.4757   -1.4439    0.2518 O   0  0  0  0  0  0  0  0  0  0  0  0
   -3.4369    0.7835    0.0809 O   0  0  0  0  0  0  0  0  0  0  0  0
   -0.8831    0.6515   -0.9658 C   0  0  0  0  0  0  0  0  0  0  0  0
    0.4923    0.8020   -1.1732 C   0  0  0  0  0  0  0  0  0  0  0  0
    1.0398    2.0316   -2.5118 Br  0  0  0  0  0  0  0  0  0  0  0  0
    4.2651    1.2944   -0.4263 H   0  0  0  0  0  0  0  0  0  0  0  0
    1.6161   -1.5448    1.0266 H   0  0  0  0  0  0  0  0  0  0  0  0
   -4.3883    0.5790    0.2077 H   0  0  0  0  0  0  0  0  0  0  0  0
   -1.5859    1.2544   -1.5394 H   0  0  0  0  0  0  0  0  0  0  0  0
  1  2  2  0
  2  3  1  0
  2  4  1  0
  4  5  2  0
  5  6  1  0
  6  7  1  0
  6  8  2  0
  8  9  1  0
  9 10  2  0
  9 11  1  0
  8 12  1  0
 12 13  2  0
 13 14  1  0
 13  4  1  0
  3 15  1  0
  5 16  1  0
 11 17  1  0
 12 18  1  0
M  END
