
     RDKit          3D

 14 14  0  0  0  0  0  0  0  0999 V2000
   -1.9751   -0.5726   -0.3773 C   0  0  0  0  0  0  0  0  0  0  0  0
   -0.5976   -0.0597   -0.0793 C   0  0  0  0  0  0  0  0  0  0  0  0
    0.5074   -0.9118   -0.2277 C   0  0  0  0  0  0  0  0  0  0  0  0
    1.7867   -0.4415    0.0472 C   0  0  0  0  0  0  0  0  0  0  0  0
    3.2865   -1.5661   -0.1443 Br  0  0  0  0  0  0  0  0  0  0  0  0
    1.9305    0.8694    0.4638 C   0  0  0  0  0  0  0  0  0  0  0  0
    0.8932    1.7229    0.6194 N   0  0  0  0  0  0  0  0  0  0  0  0
   -0.3470    1.2486    0.3473 C   0  0  0  0  0  0  0  0  0  0  0  0
   -1.7663    2.4962    0.5847 Br  0  0  0  0  0  0  0  0  0  0  0  0
   -2.4324    0.0028   -1.1886 H   0  0  0  0  0  0  0  0  0  0  0  0
   -2.6065   -0.5195    0.5153 H   0  0  0  0  0  0  0  0  0  0  0  0
   -1.9514   -1.6204   -0.6961 H   0  0  0  0  0  0  0  0  0  0  0  0
    0.3666   -1.9387   -0.5568 H   0  0  0  0  0  0  0  0  0  0  0  0
    2.9054    1.2903    0.6924 H   0  0  0  0  0  0  0  0  0  0  0  0
  1  2  1  0
  2  3  2  0
  3  4  1  0
  4  5  1  0
  4  6  2  0
  6  7  1  0
  7  8  2  0
  8  9  1  0
  8  2  1  0
  1 10  1  0
  1 11  1  0
  1 12  1  0
  3 13  1  0
  6 14  1  0
M  END
