
     RDKit          3D

 16 16  0  0  0  0  0  0  0  0999 V2000
   -1.9218    0.4317    0.1872 C   0  0  0  0  0  0  0  0  0  0  0  0
   -0.5543   -0.1670   -0.0074 C   0  0  0  0  0  0  0  0  0  0  0  0
   -0.3977   -1.5289   -0.3018 C   0  0  0  0  0  0  0  0  0  0  0  0
   -1.8631   -2.7179   -0.4786 Br  0  0  0  0  0  0  0  0  0  0  0  0
    0.8850   -2.0419   -0.4741 C   0  0  0  0  0  0  0  0  0  0  0  0
    2.0173   -1.3062   -0.3760 N   0  0  0  0  0  0  0  0  0  0  0  0
    1.8790    0.0111   -0.0918 C   0  0  0  0  0  0  0  0  0  0  0  0
    3.5116    0.9842    0.0311 Br  0  0  0  0  0  0  0  0  0  0  0  0
    0.6302    0.5923    0.0931 C   0  0  0  0  0  0  0  0  0  0  0  0
    0.5664    1.9953    0.3915 N   0  0  0  0  0  4  0  0  0  0  0  0
    0.5773    2.3133    1.5868 O   0  0  0  0  0  0  0  0  0  0  0  0
    0.4693    2.7673   -0.5701 O   0  0  0  0  0  1  0  0  0  0  0  0
   -2.4314   -0.0549    1.0254 H   0  0  0  0  0  0  0  0  0  0  0  0
   -2.5191    0.3129   -0.7230 H   0  0  0  0  0  0  0  0  0  0  0  0
   -1.8983    1.5013    0.4110 H   0  0  0  0  0  0  0  0  0  0  0  0
    1.0494   -3.0927   -0.7034 H   0  0  0  0  0  0  0  0  0  0  0  0
  1  2  1  0
  2  3  2  0
  3  4  1  0
  3  5  1  0
  5  6  2  0
  6  7  1  0
  7  8  1  0
  7  9  2  0
  9 10  1  0
 10 11  2  0
 10 12  1  0
  9  2  1  0
  1 13  1  0
  1 14  1  0
  1 15  1  0
  5 16  1  0
M  CHG  2  10   1  12  -1
M  END
