
     RDKit          3D

 10 10  0  0  0  0  0  0  0  0999 V2000
    3.0120    1.1821    0.0678 Br  0  0  0  0  0  0  0  0  0  0  0  0
    1.2425    0.5164    0.0288 C   0  0  0  0  0  0  0  0  0  0  0  0
    1.0228   -0.8544   -0.0139 C   0  0  0  0  0  0  0  0  0  0  0  0
   -0.2198   -1.4018   -0.0436 N   0  0  0  0  0  0  0  0  0  0  0  0
   -1.2425   -0.5164   -0.0288 C   0  0  0  0  0  0  0  0  0  0  0  0
   -3.0120   -1.1821   -0.0678 Br  0  0  0  0  0  0  0  0  0  0  0  0
   -1.0228    0.8544    0.0139 C   0  0  0  0  0  0  0  0  0  0  0  0
    0.2198    1.4018    0.0436 N   0  0  0  0  0  0  0  0  0  0  0  0
    1.8425   -1.5647   -0.0257 H   0  0  0  0  0  0  0  0  0  0  0  0
   -1.8425    1.5647    0.0257 H   0  0  0  0  0  0  0  0  0  0  0  0
  1  2  1  0
  2  3  2  0
  3  4  1  0
  4  5  2  0
  5  6  1  0
  5  7  1  0
  7  8  2  0
  8  2  1  0
  3  9  1  0
  7 10  1  0
M  END
