
     RDKit          3D

 15 15  0  0  0  0  0  0  0  0999 V2000
    2.4854    0.0281   -0.4565 C   0  0  0  0  0  0  0  0  0  0  0  0
    1.4267    0.9345   -0.1684 O   0  0  0  0  0  0  0  0  0  0  0  0
    0.1801    0.4010    0.0076 C   0  0  0  0  0  0  0  0  0  0  0  0
   -0.8174    1.3306    0.2867 C   0  0  0  0  0  0  0  0  0  0  0  0
   -2.1102    0.8746    0.4792 C   0  0  0  0  0  0  0  0  0  0  0  0
   -3.4766    2.1335    0.8600 Br  0  0  0  0  0  0  0  0  0  0  0  0
   -2.4608   -0.4244    0.4116 N   0  0  0  0  0  0  0  0  0  0  0  0
   -1.4763   -1.3035    0.1400 C   0  0  0  0  0  0  0  0  0  0  0  0
   -1.9493   -3.1391    0.0403 Br  0  0  0  0  0  0  0  0  0  0  0  0
   -0.1518   -0.9462   -0.0684 C   0  0  0  0  0  0  0  0  0  0  0  0
    2.6345   -0.6777    0.3673 H   0  0  0  0  0  0  0  0  0  0  0  0
    3.4045    0.6116   -0.5669 H   0  0  0  0  0  0  0  0  0  0  0  0
    2.3078   -0.4975   -1.4005 H   0  0  0  0  0  0  0  0  0  0  0  0
   -0.5787    2.3869    0.3503 H   0  0  0  0  0  0  0  0  0  0  0  0
    0.5821   -1.7124   -0.2821 H   0  0  0  0  0  0  0  0  0  0  0  0
  1  2  1  0
  2  3  1  0
  3  4  2  0
  4  5  1  0
  5  6  1  0
  5  7  2  0
  7  8  1  0
  8  9  1  0
  8 10  2  0
 10  3  1  0
  1 11  1  0
  1 12  1  0
  1 13  1  0
  4 14  1  0
 10 15  1  0
M  END
