
     RDKit          3D

 14 14  0  0  0  0  0  0  0  0999 V2000
    2.4220   -0.0801   -1.5021 O   0  0  0  0  0  0  0  0  0  0  0  0
    1.9350   -0.0377   -0.3891 C   0  0  0  0  0  0  0  0  0  0  0  0
    2.6612   -0.2213    0.7237 O   0  0  0  0  0  0  0  0  0  0  0  0
    0.5042    0.0761   -0.0930 C   0  0  0  0  0  0  0  0  0  0  0  0
   -0.3651   -0.7909   -0.7628 C   0  0  0  0  0  0  0  0  0  0  0  0
   -1.7328   -0.7180   -0.5120 C   0  0  0  0  0  0  0  0  0  0  0  0
   -2.1835    0.2291    0.3946 C   0  0  0  0  0  0  0  0  0  0  0  0
   -4.0416    0.3410    0.7522 Br  0  0  0  0  0  0  0  0  0  0  0  0
   -1.3689    1.0918    1.0381 N   0  0  0  0  0  0  0  0  0  0  0  0
   -0.0373    1.0091    0.7832 C   0  0  0  0  0  0  0  0  0  0  0  0
    1.0225    2.3360    1.6469 Br  0  0  0  0  0  0  0  0  0  0  0  0
    3.5846   -0.3281    0.4102 H   0  0  0  0  0  0  0  0  0  0  0  0
    0.0208   -1.5196   -1.4727 H   0  0  0  0  0  0  0  0  0  0  0  0
   -2.4213   -1.3873   -1.0176 H   0  0  0  0  0  0  0  0  0  0  0  0
  1  2  2  0
  2  3  1  0
  2  4  1  0
  4  5  2  0
  5  6  1  0
  6  7  2  0
  7  8  1  0
  7  9  1  0
  9 10  2  0
 10 11  1  0
 10  4  1  0
  3 12  1  0
  5 13  1  0
  6 14  1  0
M  END
