
     RDKit          3D

 18 18  0  0  0  0  0  0  0  0999 V2000
   -2.9697    0.2200   -0.8824 C   0  0  0  0  0  0  0  0  0  0  0  0
   -2.2538    0.6138    0.2912 O   0  0  0  0  0  0  0  0  0  0  0  0
   -0.9190    0.3208    0.1703 C   0  0  0  0  0  0  0  0  0  0  0  0
   -0.4201   -0.9043    0.6377 C   0  0  0  0  0  0  0  0  0  0  0  0
   -1.5500   -2.2062    1.4352 Br  0  0  0  0  0  0  0  0  0  0  0  0
    0.9436   -1.1953    0.5481 C   0  0  0  0  0  0  0  0  0  0  0  0
    1.8148   -0.2413    0.0081 C   0  0  0  0  0  0  0  0  0  0  0  0
    3.2490   -0.5410   -0.0879 N   0  0  0  0  0  4  0  0  0  0  0  0
    3.6326   -1.6484    0.3122 O   0  0  0  0  0  0  0  0  0  0  0  0
    3.9873    0.3303   -0.5669 O   0  0  0  0  0  1  0  0  0  0  0  0
    1.3371    1.0004   -0.4287 C   0  0  0  0  0  0  0  0  0  0  0  0
   -0.0286    1.2805   -0.3342 C   0  0  0  0  0  0  0  0  0  0  0  0
   -0.6168    3.0015   -0.8816 Br  0  0  0  0  0  0  0  0  0  0  0  0
   -4.0227    0.4757   -0.7317 H   0  0  0  0  0  0  0  0  0  0  0  0
   -2.9042   -0.8600   -1.0499 H   0  0  0  0  0  0  0  0  0  0  0  0
   -2.6146    0.7557   -1.7687 H   0  0  0  0  0  0  0  0  0  0  0  0
    1.3179   -2.1525    0.9073 H   0  0  0  0  0  0  0  0  0  0  0  0
    2.0173    1.7504   -0.8290 H   0  0  0  0  0  0  0  0  0  0  0  0
  1  2  1  0
  2  3  1  0
  3  4  2  0
  4  5  1  0
  4  6  1  0
  6  7  2  0
  7  8  1  0
  8  9  2  0
  8 10  1  0
  7 11  1  0
 11 12  2  0
 12 13  1  0
 12  3  1  0
  1 14  1  0
  1 15  1  0
  1 16  1  0
  6 17  1  0
 11 18  1  0
M  CHG  2   8   1  10  -1
M  END
