
     RDKit          3D

 13 13  0  0  0  0  0  0  0  0999 V2000
    2.0707    1.3161   -0.3301 O   0  0  0  0  0  0  0  0  0  0  0  0
    0.9085    0.6116   -0.1587 C   0  0  0  0  0  0  0  0  0  0  0  0
   -0.3106    1.1972   -0.5173 C   0  0  0  0  0  0  0  0  0  0  0  0
   -0.3967    2.9493   -1.2379 Br  0  0  0  0  0  0  0  0  0  0  0  0
   -1.5023    0.4920   -0.3485 C   0  0  0  0  0  0  0  0  0  0  0  0
   -1.4637   -0.7941    0.1780 C   0  0  0  0  0  0  0  0  0  0  0  0
   -2.6075   -1.4713    0.3401 F   0  0  0  0  0  0  0  0  0  0  0  0
   -0.2623   -1.3925    0.5400 C   0  0  0  0  0  0  0  0  0  0  0  0
    0.9259   -0.6848    0.3699 C   0  0  0  0  0  0  0  0  0  0  0  0
    2.5591   -1.5093    0.8665 Br  0  0  0  0  0  0  0  0  0  0  0  0
    2.8114    0.7585   -0.0302 H   0  0  0  0  0  0  0  0  0  0  0  0
   -2.4598    0.9258   -0.6195 H   0  0  0  0  0  0  0  0  0  0  0  0
   -0.2726   -2.3984    0.9478 H   0  0  0  0  0  0  0  0  0  0  0  0
  1  2  1  0
  2  3  2  0
  3  4  1  0
  3  5  1  0
  5  6  2  0
  6  7  1  0
  6  8  1  0
  8  9  2  0
  9 10  1  0
  9  2  1  0
  1 11  1  0
  5 12  1  0
  8 13  1  0
M  END
