
     RDKit          3D

 17 17  0  0  0  0  0  0  0  0999 V2000
    2.7325   -0.2046    0.0618 C   0  0  0  0  0  0  0  0  0  0  0  0
    1.2347   -0.0772   -0.0188 C   0  0  0  0  0  0  0  0  0  0  0  0
    0.4532   -1.2404    0.0166 C   0  0  0  0  0  0  0  0  0  0  0  0
   -0.9404   -1.1657   -0.0540 C   0  0  0  0  0  0  0  0  0  0  0  0
   -1.9167   -2.7979    0.0179 Br  0  0  0  0  0  0  0  0  0  0  0  0
   -1.6001    0.0675   -0.1959 C   0  0  0  0  0  0  0  0  0  0  0  0
   -3.0102    0.1334   -0.1329 N   0  0  0  0  0  0  0  0  0  0  0  0
   -0.8153    1.2423   -0.1847 C   0  0  0  0  0  0  0  0  0  0  0  0
   -1.7131    2.9327   -0.3014 Br  0  0  0  0  0  0  0  0  0  0  0  0
    0.5917    1.1722   -0.1140 C   0  0  0  0  0  0  0  0  0  0  0  0
    1.5629    2.6140   -0.1365 Cl  0  0  0  0  0  0  0  0  0  0  0  0
    3.2023    0.2308   -0.8260 H   0  0  0  0  0  0  0  0  0  0  0  0
    3.1102    0.2916    0.9616 H   0  0  0  0  0  0  0  0  0  0  0  0
    3.0443   -1.2535    0.1118 H   0  0  0  0  0  0  0  0  0  0  0  0
    0.9343   -2.2128    0.1080 H   0  0  0  0  0  0  0  0  0  0  0  0
   -3.3973    0.9824   -0.5382 H   0  0  0  0  0  0  0  0  0  0  0  0
   -3.4730   -0.7148   -0.4505 H   0  0  0  0  0  0  0  0  0  0  0  0
  1  2  1  0
  2  3  2  0
  3  4  1  0
  4  5  1  0
  4  6  2  0
  6  7  1  0
  6  8  1  0
  8  9  1  0
  8 10  2  0
 10 11  1  0
 10  2  1  0
  1 12  1  0
  1 13  1  0
  1 14  1  0
  3 15  1  0
  7 16  1  0
  7 17  1  0
M  END
