
     RDKit          3D

 17 17  0  0  0  0  0  0  0  0999 V2000
    2.8555   -0.0086   -0.8423 C   0  0  0  0  0  0  0  0  0  0  0  0
    1.6603   -0.6813   -1.2201 O   0  0  0  0  0  0  0  0  0  0  0  0
    0.5196   -0.3581   -0.5383 C   0  0  0  0  0  0  0  0  0  0  0  0
   -0.6213   -1.0513   -0.9541 C   0  0  0  0  0  0  0  0  0  0  0  0
   -1.8562   -0.8194   -0.3434 C   0  0  0  0  0  0  0  0  0  0  0  0
   -3.3630   -1.7943   -0.9566 Br  0  0  0  0  0  0  0  0  0  0  0  0
   -1.9590    0.1107    0.6910 C   0  0  0  0  0  0  0  0  0  0  0  0
   -3.1732    0.3325    1.2848 O   0  0  0  0  0  0  0  0  0  0  0  0
   -0.8179    0.8032    1.1059 C   0  0  0  0  0  0  0  0  0  0  0  0
   -0.9172    2.0764    2.5099 Br  0  0  0  0  0  0  0  0  0  0  0  0
    0.4195    0.5727    0.4961 C   0  0  0  0  0  0  0  0  0  0  0  0
    2.7696    1.0704   -1.0077 H   0  0  0  0  0  0  0  0  0  0  0  0
    3.1210   -0.2302    0.1966 H   0  0  0  0  0  0  0  0  0  0  0  0
    3.6639   -0.3802   -1.4794 H   0  0  0  0  0  0  0  0  0  0  0  0
   -0.5363   -1.7757   -1.7612 H   0  0  0  0  0  0  0  0  0  0  0  0
   -3.0514    1.0066    1.9772 H   0  0  0  0  0  0  0  0  0  0  0  0
    1.2858    1.1267    0.8416 H   0  0  0  0  0  0  0  0  0  0  0  0
  1  2  1  0
  2  3  1  0
  3  4  2  0
  4  5  1  0
  5  6  1  0
  5  7  2  0
  7  8  1  0
  7  9  1  0
  9 10  1  0
  9 11  2  0
 11  3  1  0
  1 12  1  0
  1 13  1  0
  1 14  1  0
  4 15  1  0
  8 16  1  0
 11 17  1  0
M  END
