
     RDKit          3D

 19 19  0  0  0  0  0  0  0  0999 V2000
   -2.4406   -0.9318    0.2049 C   0  0  0  0  0  0  0  0  0  0  0  0
   -0.9894   -0.5584    0.0802 C   0  0  0  0  0  0  0  0  0  0  0  0
   -0.0195   -1.5625   -0.0116 C   0  0  0  0  0  0  0  0  0  0  0  0
    1.3368   -1.2333   -0.1333 C   0  0  0  0  0  0  0  0  0  0  0  0
    2.5803   -2.6689   -0.2672 Br  0  0  0  0  0  0  0  0  0  0  0  0
    1.7766    0.1068   -0.1359 C   0  0  0  0  0  0  0  0  0  0  0  0
    3.1304    0.4112   -0.3935 N   0  0  0  0  0  0  0  0  0  0  0  0
    0.8017    1.1249   -0.0921 C   0  0  0  0  0  0  0  0  0  0  0  0
    1.3686    2.9502   -0.1773 Br  0  0  0  0  0  0  0  0  0  0  0  0
   -0.5531    0.7796    0.0300 C   0  0  0  0  0  0  0  0  0  0  0  0
   -1.5440    1.8302    0.1054 N   0  0  0  0  0  4  0  0  0  0  0  0
   -1.8107    2.2665    1.2325 O   0  0  0  0  0  0  0  0  0  0  0  0
   -2.0703    2.1822   -0.9577 O   0  0  0  0  0  1  0  0  0  0  0  0
   -2.8755   -0.4879    1.1060 H   0  0  0  0  0  0  0  0  0  0  0  0
   -2.5690   -2.0168    0.2831 H   0  0  0  0  0  0  0  0  0  0  0  0
   -2.9974   -0.5958   -0.6755 H   0  0  0  0  0  0  0  0  0  0  0  0
   -0.3187   -2.6097    0.0035 H   0  0  0  0  0  0  0  0  0  0  0  0
    3.7780   -0.3237   -0.1179 H   0  0  0  0  0  0  0  0  0  0  0  0
    3.4158    1.3372   -0.0836 H   0  0  0  0  0  0  0  0  0  0  0  0
  1  2  1  0
  2  3  2  0
  3  4  1  0
  4  5  1  0
  4  6  2  0
  6  7  1  0
  6  8  1  0
  8  9  1  0
  8 10  2  0
 10 11  1  0
 11 12  2  0
 11 13  1  0
 10  2  1  0
  1 14  1  0
  1 15  1  0
  1 16  1  0
  3 17  1  0
  7 18  1  0
  7 19  1  0
M  CHG  2  11   1  13  -1
M  END
