
     RDKit          3D

 14 14  0  0  0  0  0  0  0  0999 V2000
    2.2705    0.0549   -0.3344 N   0  0  0  0  0  0  0  0  0  0  0  0
    0.8840    0.0354   -0.0721 C   0  0  0  0  0  0  0  0  0  0  0  0
    0.2236   -1.1682    0.2390 C   0  0  0  0  0  0  0  0  0  0  0  0
    1.2011   -2.7763    0.5214 Br  0  0  0  0  0  0  0  0  0  0  0  0
   -1.1683   -1.2212    0.3738 C   0  0  0  0  0  0  0  0  0  0  0  0
   -1.9327   -0.0756    0.1646 C   0  0  0  0  0  0  0  0  0  0  0  0
   -1.3077    1.1181   -0.1890 C   0  0  0  0  0  0  0  0  0  0  0  0
    0.0845    1.1664   -0.3227 C   0  0  0  0  0  0  0  0  0  0  0  0
    0.8672    2.8262   -0.8265 Br  0  0  0  0  0  0  0  0  0  0  0  0
    2.7833   -0.6724    0.1574 H   0  0  0  0  0  0  0  0  0  0  0  0
    2.6849    0.9785   -0.2398 H   0  0  0  0  0  0  0  0  0  0  0  0
   -1.6639   -2.1539    0.6321 H   0  0  0  0  0  0  0  0  0  0  0  0
   -3.0147   -0.1160    0.2645 H   0  0  0  0  0  0  0  0  0  0  0  0
   -1.9117    2.0043   -0.3682 H   0  0  0  0  0  0  0  0  0  0  0  0
  1  2  1  0
  2  3  2  0
  3  4  1  0
  3  5  1  0
  5  6  2  0
  6  7  1  0
  7  8  2  0
  8  9  1  0
  8  2  1  0
  1 10  1  0
  1 11  1  0
  5 12  1  0
  6 13  1  0
  7 14  1  0
M  END
