
     RDKit          3D

 14 14  0  0  0  0  0  0  0  0999 V2000
   -3.1701   -0.1868    0.0118 O   0  0  0  0  0  0  0  0  0  0  0  0
   -2.2517    0.5342   -0.3543 C   0  0  0  0  0  0  0  0  0  0  0  0
   -0.8326    0.1823   -0.1387 C   0  0  0  0  0  0  0  0  0  0  0  0
    0.0605    1.1729    0.3072 C   0  0  0  0  0  0  0  0  0  0  0  0
   -0.4724    2.9606    0.6791 Br  0  0  0  0  0  0  0  0  0  0  0  0
    1.4051    0.8628    0.5297 C   0  0  0  0  0  0  0  0  0  0  0  0
    1.8548   -0.4304    0.3053 C   0  0  0  0  0  0  0  0  0  0  0  0
    3.1432   -0.7246    0.5181 F   0  0  0  0  0  0  0  0  0  0  0  0
    0.9934   -1.4214   -0.1436 C   0  0  0  0  0  0  0  0  0  0  0  0
   -0.3535   -1.1189   -0.3709 C   0  0  0  0  0  0  0  0  0  0  0  0
   -1.4211   -2.5273   -1.0717 Br  0  0  0  0  0  0  0  0  0  0  0  0
   -2.4538    1.5054   -0.8350 H   0  0  0  0  0  0  0  0  0  0  0  0
    2.1108    1.6099    0.8824 H   0  0  0  0  0  0  0  0  0  0  0  0
    1.3873   -2.4188   -0.3193 H   0  0  0  0  0  0  0  0  0  0  0  0
  1  2  2  0
  2  3  1  0
  3  4  2  0
  4  5  1  0
  4  6  1  0
  6  7  2  0
  7  8  1  0
  7  9  1  0
  9 10  2  0
 10 11  1  0
 10  3  1  0
  2 12  1  0
  6 13  1  0
  9 14  1  0
M  END
