
     RDKit          3D

 17 18  0  0  0  0  0  0  0  0999 V2000
   -4.1886    0.7107   -0.3397 Br  0  0  0  0  0  0  0  0  0  0  0  0
   -2.3980    0.1118   -0.2726 C   0  0  0  0  0  0  0  0  0  0  0  0
   -2.1104   -1.2345   -0.4628 C   0  0  0  0  0  0  0  0  0  0  0  0
   -0.7821   -1.6697   -0.4115 C   0  0  0  0  0  0  0  0  0  0  0  0
    0.2660   -0.7903   -0.1744 C   0  0  0  0  0  0  0  0  0  0  0  0
    1.5223   -1.2608   -0.1354 N   0  0  0  0  0  0  0  0  0  0  0  0
    2.5223   -0.3831    0.0970 C   0  0  0  0  0  0  0  0  0  0  0  0
    4.2915   -1.0655    0.1488 Br  0  0  0  0  0  0  0  0  0  0  0  0
    2.3256    0.9724    0.2970 C   0  0  0  0  0  0  0  0  0  0  0  0
    1.0231    1.4572    0.2561 C   0  0  0  0  0  0  0  0  0  0  0  0
   -0.0383    0.5756    0.0174 C   0  0  0  0  0  0  0  0  0  0  0  0
   -1.3709    1.0208   -0.0326 C   0  0  0  0  0  0  0  0  0  0  0  0
   -2.9025   -1.9546   -0.6509 H   0  0  0  0  0  0  0  0  0  0  0  0
   -0.5589   -2.7241   -0.5607 H   0  0  0  0  0  0  0  0  0  0  0  0
    3.1577    1.6428    0.4808 H   0  0  0  0  0  0  0  0  0  0  0  0
    0.8432    2.5183    0.4103 H   0  0  0  0  0  0  0  0  0  0  0  0
   -1.6022    2.0729    0.1154 H   0  0  0  0  0  0  0  0  0  0  0  0
  1  2  1  0
  2  3  2  0
  3  4  1  0
  4  5  2  0
  5  6  1  0
  6  7  2  0
  7  8  1  0
  7  9  1  0
  9 10  2  0
 10 11  1  0
 11 12  2  0
 12  2  1  0
 11  5  1  0
  3 13  1  0
  4 14  1  0
  9 15  1  0
 10 16  1  0
 12 17  1  0
M  END
