
     RDKit          3D

 19 19  0  0  0  0  0  0  0  0999 V2000
    3.2866    0.0842   -0.2957 C   0  0  0  0  0  0  0  0  0  0  0  0
    1.8460    0.4362    0.0258 C   0  0  0  0  0  0  0  0  0  0  0  0
    1.0181   -0.6456   -0.4232 O   0  0  0  0  0  0  0  0  0  0  0  0
   -0.3044   -0.3904   -0.1615 C   0  0  0  0  0  0  0  0  0  0  0  0
   -1.1079    0.2346   -1.1272 C   0  0  0  0  0  0  0  0  0  0  0  0
   -0.4195    0.7635   -2.8157 Br  0  0  0  0  0  0  0  0  0  0  0  0
   -2.4599    0.4677   -0.8730 C   0  0  0  0  0  0  0  0  0  0  0  0
   -3.0068    0.0535    0.3350 C   0  0  0  0  0  0  0  0  0  0  0  0
   -4.3050    0.2751    0.5777 F   0  0  0  0  0  0  0  0  0  0  0  0
   -2.2379   -0.5999    1.2900 C   0  0  0  0  0  0  0  0  0  0  0  0
   -0.8858   -0.8332    1.0363 C   0  0  0  0  0  0  0  0  0  0  0  0
    0.1102   -1.7832    2.3441 Br  0  0  0  0  0  0  0  0  0  0  0  0
    3.5749   -0.8487    0.1998 H   0  0  0  0  0  0  0  0  0  0  0  0
    3.4137   -0.0731   -1.3719 H   0  0  0  0  0  0  0  0  0  0  0  0
    3.9639    0.8797    0.0274 H   0  0  0  0  0  0  0  0  0  0  0  0
    1.7410    0.5831    1.1068 H   0  0  0  0  0  0  0  0  0  0  0  0
    1.5778    1.3683   -0.4844 H   0  0  0  0  0  0  0  0  0  0  0  0
   -3.0983    0.9558   -1.6030 H   0  0  0  0  0  0  0  0  0  0  0  0
   -2.7066   -0.9276    2.2128 H   0  0  0  0  0  0  0  0  0  0  0  0
  1  2  1  0
  2  3  1  0
  3  4  1  0
  4  5  2  0
  5  6  1  0
  5  7  1  0
  7  8  2  0
  8  9  1  0
  8 10  1  0
 10 11  2  0
 11 12  1  0
 11  4  1  0
  1 13  1  0
  1 14  1  0
  1 15  1  0
  2 16  1  0
  2 17  1  0
  7 18  1  0
 10 19  1  0
M  END
