
     RDKit          3D

 56 62  0  0  0  0  0  0  0  0999 V2000
   -1.9834    4.8213    2.0021 Br  0  0  0  0  0  0  0  0  0  0  0  0
   -0.9328    3.3459    1.4644 C   0  0  0  0  0  0  0  0  0  0  0  0
   -1.5306    2.2566    0.8353 C   0  0  0  0  0  0  0  0  0  0  0  0
   -0.7842    1.1239    0.4119 C   0  0  0  0  0  0  0  0  0  0  0  0
   -1.3934    0.0047   -0.2347 C   0  0  0  0  0  0  0  0  0  0  0  0
   -2.8550    0.0095   -0.4821 C   0  0  0  0  0  0  0  0  0  0  0  0
   -3.3766    0.5337   -1.6725 C   0  0  0  0  0  0  0  0  0  0  0  0
   -4.7540    0.5391   -1.9041 C   0  0  0  0  0  0  0  0  0  0  0  0
   -5.6429    0.0202   -0.9510 C   0  0  0  0  0  0  0  0  0  0  0  0
   -7.0300    0.0186   -1.1689 C   0  0  0  0  0  0  0  0  0  0  0  0
   -7.9018   -0.5009   -0.2107 C   0  0  0  0  0  0  0  0  0  0  0  0
   -7.3986   -1.0249    0.9764 C   0  0  0  0  0  0  0  0  0  0  0  0
   -6.0223   -1.0306    1.2082 C   0  0  0  0  0  0  0  0  0  0  0  0
   -5.1317   -0.5119    0.2545 C   0  0  0  0  0  0  0  0  0  0  0  0
   -3.7440   -0.5104    0.4736 C   0  0  0  0  0  0  0  0  0  0  0  0
   -0.6126   -1.1189   -0.6462 C   0  0  0  0  0  0  0  0  0  0  0  0
   -1.1857   -2.2486   -1.2902 C   0  0  0  0  0  0  0  0  0  0  0  0
   -0.4286   -3.3476   -1.6946 C   0  0  0  0  0  0  0  0  0  0  0  0
    0.9327   -3.3456   -1.4636 C   0  0  0  0  0  0  0  0  0  0  0  0
    1.9833   -4.8211   -2.0012 Br  0  0  0  0  0  0  0  0  0  0  0  0
    1.5305   -2.2563   -0.8345 C   0  0  0  0  0  0  0  0  0  0  0  0
    0.7842   -1.1235   -0.4113 C   0  0  0  0  0  0  0  0  0  0  0  0
    1.3934   -0.0043    0.2352 C   0  0  0  0  0  0  0  0  0  0  0  0
    2.8550   -0.0091    0.4824 C   0  0  0  0  0  0  0  0  0  0  0  0
    3.7439    0.5100   -0.4737 C   0  0  0  0  0  0  0  0  0  0  0  0
    5.1317    0.5114   -0.2549 C   0  0  0  0  0  0  0  0  0  0  0  0
    6.0221    1.0292   -1.2092 C   0  0  0  0  0  0  0  0  0  0  0  0
    7.3985    1.0233   -0.9777 C   0  0  0  0  0  0  0  0  0  0  0  0
    7.9019    0.5001    0.2096 C   0  0  0  0  0  0  0  0  0  0  0  0
    7.0301   -0.0185    1.1684 C   0  0  0  0  0  0  0  0  0  0  0  0
    5.6430   -0.0199    0.9507 C   0  0  0  0  0  0  0  0  0  0  0  0
    4.7542   -0.5380    1.9045 C   0  0  0  0  0  0  0  0  0  0  0  0
    3.3767   -0.5325    1.6731 C   0  0  0  0  0  0  0  0  0  0  0  0
    0.6126    1.1193    0.6468 C   0  0  0  0  0  0  0  0  0  0  0  0
    1.1856    2.2490    1.2908 C   0  0  0  0  0  0  0  0  0  0  0  0
    0.4285    3.3480    1.6952 C   0  0  0  0  0  0  0  0  0  0  0  0
   -2.6063    2.2949    0.6726 H   0  0  0  0  0  0  0  0  0  0  0  0
   -2.7080    0.9428   -2.4275 H   0  0  0  0  0  0  0  0  0  0  0  0
   -5.1283    0.9538   -2.8375 H   0  0  0  0  0  0  0  0  0  0  0  0
   -7.4427    0.4242   -2.0899 H   0  0  0  0  0  0  0  0  0  0  0  0
   -8.9735   -0.4954   -0.3920 H   0  0  0  0  0  0  0  0  0  0  0  0
   -8.0766   -1.4291    1.7236 H   0  0  0  0  0  0  0  0  0  0  0  0
   -5.6486   -1.4439    2.1425 H   0  0  0  0  0  0  0  0  0  0  0  0
   -3.3435   -0.9182    1.4005 H   0  0  0  0  0  0  0  0  0  0  0  0
   -2.2558   -2.2888   -1.4903 H   0  0  0  0  0  0  0  0  0  0  0  0
   -0.9151   -4.1870   -2.1832 H   0  0  0  0  0  0  0  0  0  0  0  0
    2.6062   -2.2947   -0.6718 H   0  0  0  0  0  0  0  0  0  0  0  0
    3.3433    0.9173   -1.4009 H   0  0  0  0  0  0  0  0  0  0  0  0
    5.6483    1.4419   -2.1438 H   0  0  0  0  0  0  0  0  0  0  0  0
    8.0764    1.4268   -1.7254 H   0  0  0  0  0  0  0  0  0  0  0  0
    8.9736    0.4944    0.3906 H   0  0  0  0  0  0  0  0  0  0  0  0
    7.4430   -0.4235    2.0896 H   0  0  0  0  0  0  0  0  0  0  0  0
    5.1286   -0.9521    2.8381 H   0  0  0  0  0  0  0  0  0  0  0  0
    2.7083   -0.9410    2.4286 H   0  0  0  0  0  0  0  0  0  0  0  0
    2.2558    2.2893    1.4907 H   0  0  0  0  0  0  0  0  0  0  0  0
    0.9150    4.1874    2.1838 H   0  0  0  0  0  0  0  0  0  0  0  0
  1  2  1  0
  2  3  2  0
  3  4  1  0
  4  5  2  0
  5  6  1  0
  6  7  2  0
  7  8  1  0
  8  9  2  0
  9 10  1  0
 10 11  2  0
 11 12  1  0
 12 13  2  0
 13 14  1  0
 14 15  2  0
  5 16  1  0
 16 17  2  0
 17 18  1  0
 18 19  2  0
 19 20  1  0
 19 21  1  0
 21 22  2  0
 22 23  1  0
 23 24  1  0
 24 25  2  0
 25 26  1  0
 26 27  2  0
 27 28  1  0
 28 29  2  0
 29 30  1  0
 30 31  2  0
 31 32  1  0
 32 33  2  0
 23 34  2  0
 34 35  1  0
 35 36  2  0
 36  2  1  0
 34  4  1  0
 15  6  1  0
 22 16  1  0
 33 24  1  0
 14  9  1  0
 31 26  1  0
  3 37  1  0
  7 38  1  0
  8 39  1  0
 10 40  1  0
 11 41  1  0
 12 42  1  0
 13 43  1  0
 15 44  1  0
 17 45  1  0
 18 46  1  0
 21 47  1  0
 25 48  1  0
 27 49  1  0
 28 50  1  0
 29 51  1  0
 30 52  1  0
 32 53  1  0
 33 54  1  0
 35 55  1  0
 36 56  1  0
M  END
