
     RDKit          3D

 11 11  0  0  0  0  0  0  0  0999 V2000
    2.2977    1.2977    0.0460 F   0  0  0  0  0  0  0  0  0  0  0  0
    1.1687    0.5760    0.0195 C   0  0  0  0  0  0  0  0  0  0  0  0
   -0.0532    1.2322    0.0581 C   0  0  0  0  0  0  0  0  0  0  0  0
   -1.2140    0.4727    0.0300 C   0  0  0  0  0  0  0  0  0  0  0  0
   -2.4009    1.0939    0.0667 F   0  0  0  0  0  0  0  0  0  0  0  0
   -1.1150   -0.9140   -0.0356 C   0  0  0  0  0  0  0  0  0  0  0  0
   -2.6955   -1.9622   -0.0745 Br  0  0  0  0  0  0  0  0  0  0  0  0
    0.0680   -1.5746   -0.0742 N   0  0  0  0  0  0  0  0  0  0  0  0
    1.1896   -0.8141   -0.0458 C   0  0  0  0  0  0  0  0  0  0  0  0
    2.8545   -1.7214   -0.0990 Br  0  0  0  0  0  0  0  0  0  0  0  0
   -0.0999    2.3136    0.1090 H   0  0  0  0  0  0  0  0  0  0  0  0
  1  2  1  0
  2  3  2  0
  3  4  1  0
  4  5  1  0
  4  6  2  0
  6  7  1  0
  6  8  1  0
  8  9  2  0
  9 10  1  0
  9  2  1  0
  3 11  1  0
M  END
