
     RDKit          3D

 11 11  0  0  0  0  0  0  0  0999 V2000
    2.8395   -1.7113   -0.0294 Br  0  0  0  0  0  0  0  0  0  0  0  0
    1.1775   -0.7974   -0.0172 C   0  0  0  0  0  0  0  0  0  0  0  0
    1.1791    0.5883    0.0626 C   0  0  0  0  0  0  0  0  0  0  0  0
   -0.0446    1.2500    0.0709 C   0  0  0  0  0  0  0  0  0  0  0  0
   -1.2181    0.5064   -0.0005 C   0  0  0  0  0  0  0  0  0  0  0  0
   -1.1179   -0.8758   -0.0777 C   0  0  0  0  0  0  0  0  0  0  0  0
   -2.7107   -1.9009   -0.1756 Br  0  0  0  0  0  0  0  0  0  0  0  0
    0.0550   -1.5422   -0.0875 N   0  0  0  0  0  0  0  0  0  0  0  0
    2.1071    1.1475    0.1175 H   0  0  0  0  0  0  0  0  0  0  0  0
   -0.0832    2.3343    0.1324 H   0  0  0  0  0  0  0  0  0  0  0  0
   -2.1837    1.0010    0.0044 H   0  0  0  0  0  0  0  0  0  0  0  0
  1  2  1  0
  2  3  2  0
  3  4  1  0
  4  5  2  0
  5  6  1  0
  6  7  1  0
  6  8  2  0
  8  2  1  0
  3  9  1  0
  4 10  1  0
  5 11  1  0
M  END
