
     RDKit          3D

 24 27  0  0  0  0  0  0  0  0999 V2000
    0.0064    2.5010   -0.0772 C   0  0  0  0  0  0  0  0  0  0  0  0
    1.0106    1.5283   -0.0261 C   0  0  0  0  0  0  0  0  0  0  0  0
    0.6894    0.1840    0.0591 C   0  0  0  0  0  0  0  0  0  0  0  0
   -0.6894   -0.1840    0.0933 C   0  0  0  0  0  0  0  0  0  0  0  0
   -1.0106   -1.5283    0.1784 C   0  0  0  0  0  0  0  0  0  0  0  0
   -0.0064   -2.5010    0.2295 C   0  0  0  0  0  0  0  0  0  0  0  0
    1.3445   -2.1400    0.1959 C   0  0  0  0  0  0  0  0  0  0  0  0
    1.7047   -0.7837    0.1097 C   0  0  0  0  0  0  0  0  0  0  0  0
    3.1168   -0.3142    0.0690 C   0  0  0  0  0  0  0  0  0  0  0  0
    4.0572   -1.0932    0.1087 O   0  0  0  0  0  0  0  0  0  0  0  0
    3.3667    1.0103   -0.0143 O   0  0  0  0  0  0  0  0  0  0  0  0
    2.4151    1.9551   -0.0642 C   0  0  0  0  0  0  0  0  0  0  0  0
    2.6886    3.1458   -0.1395 O   0  0  0  0  0  0  0  0  0  0  0  0
    2.5566   -3.6033    0.2753 Br  0  0  0  0  0  0  0  0  0  0  0  0
   -2.4151   -1.9551    0.2165 C   0  0  0  0  0  0  0  0  0  0  0  0
   -2.6886   -3.1458    0.2918 O   0  0  0  0  0  0  0  0  0  0  0  0
   -3.3667   -1.0103    0.1666 O   0  0  0  0  0  0  0  0  0  0  0  0
   -3.1168    0.3142    0.0834 C   0  0  0  0  0  0  0  0  0  0  0  0
   -4.0572    1.0932    0.0436 O   0  0  0  0  0  0  0  0  0  0  0  0
   -1.7047    0.7837    0.0426 C   0  0  0  0  0  0  0  0  0  0  0  0
   -1.3445    2.1400   -0.0436 C   0  0  0  0  0  0  0  0  0  0  0  0
   -2.5566    3.6033   -0.1230 Br  0  0  0  0  0  0  0  0  0  0  0  0
    0.2855    3.5545   -0.1441 H   0  0  0  0  0  0  0  0  0  0  0  0
   -0.2855   -3.5545    0.2964 H   0  0  0  0  0  0  0  0  0  0  0  0
  1  2  2  0
  2  3  1  0
  3  4  2  0
  4  5  1  0
  5  6  2  0
  6  7  1  0
  7  8  2  0
  8  9  1  0
  9 10  2  0
  9 11  1  0
 11 12  1  0
 12 13  2  0
  7 14  1  0
  5 15  1  0
 15 16  2  0
 15 17  1  0
 17 18  1  0
 18 19  2  0
 18 20  1  0
 20 21  2  0
 21 22  1  0
 21  1  1  0
 12  2  1  0
  8  3  1  0
 20  4  1  0
  1 23  1  0
  6 24  1  0
M  END
