
     RDKit          3D

 24 27  0  0  0  0  0  0  0  0999 V2000
   -1.9093   -1.6160    0.1466 C   0  0  0  0  0  0  0  0  0  0  0  0
   -1.8196   -0.2211    0.0879 C   0  0  0  0  0  0  0  0  0  0  0  0
   -0.5872    0.4056    0.0096 C   0  0  0  0  0  0  0  0  0  0  0  0
    0.5872   -0.4056   -0.0097 C   0  0  0  0  0  0  0  0  0  0  0  0
    1.8196    0.2211   -0.0879 C   0  0  0  0  0  0  0  0  0  0  0  0
    1.9093    1.6160   -0.1466 C   0  0  0  0  0  0  0  0  0  0  0  0
    0.7583    2.4104   -0.1277 C   0  0  0  0  0  0  0  0  0  0  0  0
   -0.5084    1.8057   -0.0487 C   0  0  0  0  0  0  0  0  0  0  0  0
   -1.7818    2.5764   -0.0235 C   0  0  0  0  0  0  0  0  0  0  0  0
   -1.7982    3.7972   -0.0708 O   0  0  0  0  0  0  0  0  0  0  0  0
   -2.9528    1.9083    0.0537 O   0  0  0  0  0  0  0  0  0  0  0  0
   -3.0555    0.5715    0.1106 C   0  0  0  0  0  0  0  0  0  0  0  0
   -4.1399    0.0080    0.1800 O   0  0  0  0  0  0  0  0  0  0  0  0
    1.0870    4.2816   -0.2154 Br  0  0  0  0  0  0  0  0  0  0  0  0
    3.0555   -0.5715   -0.1106 C   0  0  0  0  0  0  0  0  0  0  0  0
    4.1399   -0.0080   -0.1800 O   0  0  0  0  0  0  0  0  0  0  0  0
    2.9528   -1.9083   -0.0537 O   0  0  0  0  0  0  0  0  0  0  0  0
    1.7818   -2.5764    0.0235 C   0  0  0  0  0  0  0  0  0  0  0  0
    1.7982   -3.7972    0.0708 O   0  0  0  0  0  0  0  0  0  0  0  0
    0.5084   -1.8057    0.0487 C   0  0  0  0  0  0  0  0  0  0  0  0
   -0.7583   -2.4104    0.1276 C   0  0  0  0  0  0  0  0  0  0  0  0
   -1.0870   -4.2816    0.2154 Br  0  0  0  0  0  0  0  0  0  0  0  0
   -2.8929   -2.0863    0.2079 H   0  0  0  0  0  0  0  0  0  0  0  0
    2.8929    2.0863   -0.2079 H   0  0  0  0  0  0  0  0  0  0  0  0
  1  2  2  0
  2  3  1  0
  3  4  2  0
  4  5  1  0
  5  6  2  0
  6  7  1  0
  7  8  2  0
  8  9  1  0
  9 10  2  0
  9 11  1  0
 11 12  1  0
 12 13  2  0
  7 14  1  0
  5 15  1  0
 15 16  2  0
 15 17  1  0
 17 18  1  0
 18 19  2  0
 18 20  1  0
 20 21  2  0
 21 22  1  0
 21  1  1  0
 12  2  1  0
  8  3  1  0
 20  4  1  0
  1 23  1  0
  6 24  1  0
M  END
