
     RDKit          3D

 14 14  0  0  0  0  0  0  0  0999 V2000
    2.7911    0.9708    0.1923 O   0  0  0  0  0  0  0  0  0  0  0  0
    1.9786    0.1687   -0.2191 C   0  0  0  0  0  0  0  0  0  0  0  0
    2.3620   -0.9080   -0.9317 O   0  0  0  0  0  0  0  0  0  0  0  0
    0.5151    0.1915   -0.0350 C   0  0  0  0  0  0  0  0  0  0  0  0
   -0.1745   -1.0174    0.1353 C   0  0  0  0  0  0  0  0  0  0  0  0
   -1.5524   -1.0079    0.3388 C   0  0  0  0  0  0  0  0  0  0  0  0
   -2.2009    0.2150    0.3669 C   0  0  0  0  0  0  0  0  0  0  0  0
   -4.0752    0.2519    0.6444 Br  0  0  0  0  0  0  0  0  0  0  0  0
   -1.5681    1.3944    0.2029 N   0  0  0  0  0  0  0  0  0  0  0  0
   -0.2228    1.3706    0.0060 C   0  0  0  0  0  0  0  0  0  0  0  0
    0.5490    3.0876   -0.2869 Br  0  0  0  0  0  0  0  0  0  0  0  0
    3.3364   -0.8125   -1.0036 H   0  0  0  0  0  0  0  0  0  0  0  0
    0.3567   -1.9668    0.1164 H   0  0  0  0  0  0  0  0  0  0  0  0
   -2.0952   -1.9379    0.4732 H   0  0  0  0  0  0  0  0  0  0  0  0
  1  2  2  0
  2  3  1  0
  2  4  1  0
  4  5  2  0
  5  6  1  0
  6  7  2  0
  7  8  1  0
  7  9  1  0
  9 10  2  0
 10 11  1  0
 10  4  1  0
  3 12  1  0
  5 13  1  0
  6 14  1  0
M  END
