
     RDKit          3D

 13 13  0  0  0  0  0  0  0  0999 V2000
    3.1350    1.7517   -0.2645 C   0  0  0  0  0  3  0  0  0  0  0  0
    2.1140    1.1812   -0.1783 N   0  0  0  0  0  4  0  0  0  0  0  0
    0.9027    0.5044   -0.0762 C   0  0  0  0  0  0  0  0  0  0  0  0
   -0.2987    1.2235   -0.0502 C   0  0  0  0  0  0  0  0  0  0  0  0
   -0.3536    3.1167   -0.1499 Br  0  0  0  0  0  0  0  0  0  0  0  0
   -1.5129    0.5426    0.0523 C   0  0  0  0  0  0  0  0  0  0  0  0
   -1.5133   -0.8455    0.1277 C   0  0  0  0  0  0  0  0  0  0  0  0
   -2.6787   -1.4967    0.2260 F   0  0  0  0  0  0  0  0  0  0  0  0
   -0.3277   -1.5710    0.1029 C   0  0  0  0  0  0  0  0  0  0  0  0
    0.8887   -0.8938    0.0005 C   0  0  0  0  0  0  0  0  0  0  0  0
    2.4767   -1.9304   -0.0292 Br  0  0  0  0  0  0  0  0  0  0  0  0
   -2.4611    1.0724    0.0748 H   0  0  0  0  0  0  0  0  0  0  0  0
   -0.3710   -2.6548    0.1641 H   0  0  0  0  0  0  0  0  0  0  0  0
  1  2  3  0
  2  3  1  0
  3  4  2  0
  4  5  1  0
  4  6  1  0
  6  7  2  0
  7  8  1  0
  7  9  1  0
  9 10  2  0
 10 11  1  0
 10  3  1  0
  6 12  1  0
  9 13  1  0
M  CHG  2   1  -1   2   1
M  END
