
     RDKit          3D

 20 20  0  0  0  0  0  0  0  0999 V2000
    3.0212    0.9023    0.2297 C   0  0  0  0  0  0  0  0  0  0  0  0
    2.3377   -0.7187    0.0034 S   0  0  0  0  0  0  0  0  0  0  0  0
    2.7208   -1.1926   -1.3121 O   0  0  0  0  0  0  0  0  0  0  0  0
    2.6226   -1.5005    1.1906 O   0  0  0  0  0  0  0  0  0  0  0  0
    0.5861   -0.4237   -0.0291 C   0  0  0  0  0  0  0  0  0  0  0  0
   -0.1442   -0.4852    1.1577 C   0  0  0  0  0  0  0  0  0  0  0  0
   -1.5252   -0.2732    1.1215 C   0  0  0  0  0  0  0  0  0  0  0  0
   -2.4763   -0.3727    2.7665 Br  0  0  0  0  0  0  0  0  0  0  0  0
   -2.1926    0.0265   -0.0828 C   0  0  0  0  0  0  0  0  0  0  0  0
   -3.5981    0.1106   -0.1277 N   0  0  0  0  0  0  0  0  0  0  0  0
   -1.4314    0.0209   -1.2687 C   0  0  0  0  0  0  0  0  0  0  0  0
   -2.2516    0.3316   -2.9573 Br  0  0  0  0  0  0  0  0  0  0  0  0
   -0.0498   -0.1892   -1.2483 C   0  0  0  0  0  0  0  0  0  0  0  0
    4.1089    0.8097    0.2610 H   0  0  0  0  0  0  0  0  0  0  0  0
    2.7268    1.5341   -0.6105 H   0  0  0  0  0  0  0  0  0  0  0  0
    2.6567    1.3147    1.1724 H   0  0  0  0  0  0  0  0  0  0  0  0
    0.3512   -0.7130    2.0996 H   0  0  0  0  0  0  0  0  0  0  0  0
   -3.9578    0.6065   -0.9392 H   0  0  0  0  0  0  0  0  0  0  0  0
   -4.0241    0.3988    0.7494 H   0  0  0  0  0  0  0  0  0  0  0  0
    0.5191   -0.1869   -2.1761 H   0  0  0  0  0  0  0  0  0  0  0  0
  1  2  1  0
  2  3  2  0
  2  4  2  0
  2  5  1  0
  5  6  2  0
  6  7  1  0
  7  8  1  0
  7  9  2  0
  9 10  1  0
  9 11  1  0
 11 12  1  0
 11 13  2  0
 13  5  1  0
  1 14  1  0
  1 15  1  0
  1 16  1  0
  6 17  1  0
 10 18  1  0
 10 19  1  0
 13 20  1  0
M  END
