
     RDKit          3D

 11 11  0  0  0  0  0  0  0  0999 V2000
   -0.5038    2.8514    0.1391 Cl  0  0  0  0  0  0  0  0  0  0  0  0
   -0.2047    1.1589    0.0565 C   0  0  0  0  0  0  0  0  0  0  0  0
    1.1020    0.6925    0.0546 C   0  0  0  0  0  0  0  0  0  0  0  0
    1.2880   -0.6751   -0.0130 C   0  0  0  0  0  0  0  0  0  0  0  0
    3.0573   -1.3572   -0.0182 Br  0  0  0  0  0  0  0  0  0  0  0  0
    0.2765   -1.5649   -0.0763 N   0  0  0  0  0  0  0  0  0  0  0  0
   -0.9792   -1.0728   -0.0722 C   0  0  0  0  0  0  0  0  0  0  0  0
   -2.4083   -2.3159   -0.1609 Br  0  0  0  0  0  0  0  0  0  0  0  0
   -1.2731    0.2759   -0.0074 C   0  0  0  0  0  0  0  0  0  0  0  0
    1.9423    1.3754    0.1043 H   0  0  0  0  0  0  0  0  0  0  0  0
   -2.2969    0.6319   -0.0064 H   0  0  0  0  0  0  0  0  0  0  0  0
  1  2  1  0
  2  3  2  0
  3  4  1  0
  4  5  1  0
  4  6  2  0
  6  7  1  0
  7  8  1  0
  7  9  2  0
  9  2  1  0
  3 10  1  0
  9 11  1  0
M  END
