
     RDKit          3D

 17 17  0  0  0  0  0  0  0  0999 V2000
   -2.3912   -0.7517   -0.5479 C   0  0  0  0  0  0  0  0  0  0  0  0
   -1.0630   -0.1382   -0.2064 C   0  0  0  0  0  0  0  0  0  0  0  0
   -0.9960    1.2274    0.0852 C   0  0  0  0  0  0  0  0  0  0  0  0
   -2.1116    1.9714    0.0667 F   0  0  0  0  0  0  0  0  0  0  0  0
    0.2044    1.8558    0.3895 C   0  0  0  0  0  0  0  0  0  0  0  0
    1.3794    1.1092    0.4149 C   0  0  0  0  0  0  0  0  0  0  0  0
    2.9992    2.0213    0.8187 Br  0  0  0  0  0  0  0  0  0  0  0  0
    1.3669   -0.2771    0.1721 C   0  0  0  0  0  0  0  0  0  0  0  0
    2.5780   -0.9953    0.0693 N   0  0  0  0  0  0  0  0  0  0  0  0
    0.1343   -0.8792   -0.1774 C   0  0  0  0  0  0  0  0  0  0  0  0
    0.1094   -2.7494   -0.5869 Br  0  0  0  0  0  0  0  0  0  0  0  0
   -2.6385   -1.5491    0.1602 H   0  0  0  0  0  0  0  0  0  0  0  0
   -3.2037   -0.0191   -0.5013 H   0  0  0  0  0  0  0  0  0  0  0  0
   -2.3766   -1.1527   -1.5665 H   0  0  0  0  0  0  0  0  0  0  0  0
    0.2055    2.9219    0.5935 H   0  0  0  0  0  0  0  0  0  0  0  0
    2.4677   -1.9982    0.1981 H   0  0  0  0  0  0  0  0  0  0  0  0
    3.3359   -0.5971    0.6182 H   0  0  0  0  0  0  0  0  0  0  0  0
  1  2  1  0
  2  3  2  0
  3  4  1  0
  3  5  1  0
  5  6  2  0
  6  7  1  0
  6  8  1  0
  8  9  1  0
  8 10  2  0
 10 11  1  0
 10  2  1  0
  1 12  1  0
  1 13  1  0
  1 14  1  0
  5 15  1  0
  9 16  1  0
  9 17  1  0
M  END
