
     RDKit          3D

 20 20  0  0  0  0  0  0  0  0999 V2000
   -2.5208   -0.5405    0.0378 C   0  0  0  0  0  0  0  0  0  0  0  0
   -1.0179   -0.4465    0.0068 C   0  0  0  0  0  0  0  0  0  0  0  0
   -0.2794   -1.6393   -0.0304 C   0  0  0  0  0  0  0  0  0  0  0  0
    1.1161   -1.6192   -0.0619 C   0  0  0  0  0  0  0  0  0  0  0  0
    2.0245   -3.2906   -0.1277 Br  0  0  0  0  0  0  0  0  0  0  0  0
    1.8260   -0.4106   -0.0225 C   0  0  0  0  0  0  0  0  0  0  0  0
    3.2300   -0.3980   -0.1860 N   0  0  0  0  0  0  0  0  0  0  0  0
    1.0805    0.7900   -0.0326 C   0  0  0  0  0  0  0  0  0  0  0  0
    2.0450    2.4496   -0.0598 Br  0  0  0  0  0  0  0  0  0  0  0  0
   -0.3373    0.7918    0.0006 C   0  0  0  0  0  0  0  0  0  0  0  0
   -1.0976    2.0963    0.0155 C   0  0  0  0  0  0  0  0  0  0  0  0
   -2.9130   -0.0649    0.9423 H   0  0  0  0  0  0  0  0  0  0  0  0
   -2.8608   -1.5817    0.0455 H   0  0  0  0  0  0  0  0  0  0  0  0
   -2.9499   -0.0642   -0.8495 H   0  0  0  0  0  0  0  0  0  0  0  0
   -0.7993   -2.5956   -0.0433 H   0  0  0  0  0  0  0  0  0  0  0  0
    3.6645    0.4536    0.1603 H   0  0  0  0  0  0  0  0  0  0  0  0
    3.6799   -1.2475    0.1450 H   0  0  0  0  0  0  0  0  0  0  0  0
   -0.8229    2.6858    0.8965 H   0  0  0  0  0  0  0  0  0  0  0  0
   -0.8864    2.6681   -0.8942 H   0  0  0  0  0  0  0  0  0  0  0  0
   -2.1812    1.9633    0.0573 H   0  0  0  0  0  0  0  0  0  0  0  0
  1  2  1  0
  2  3  2  0
  3  4  1  0
  4  5  1  0
  4  6  2  0
  6  7  1  0
  6  8  1  0
  8  9  1  0
  8 10  2  0
 10 11  1  0
 10  2  1  0
  1 12  1  0
  1 13  1  0
  1 14  1  0
  3 15  1  0
  7 16  1  0
  7 17  1  0
 11 18  1  0
 11 19  1  0
 11 20  1  0
M  END
