
     RDKit          3D

 20 20  0  0  0  0  0  0  0  0999 V2000
    3.8742   -0.0838   -0.3490 C   0  0  0  0  0  0  0  0  0  0  0  0
    2.4231   -0.4429   -0.2363 C   0  0  0  0  0  0  0  0  0  0  0  0
    1.9869   -1.5858   -0.2709 O   0  0  0  0  0  0  0  0  0  0  0  0
    1.6810    0.7227   -0.0846 O   0  0  0  0  0  0  0  0  0  0  0  0
    0.3114    0.4584    0.0124 C   0  0  0  0  0  0  0  0  0  0  0  0
   -0.2722    0.2441    1.2675 C   0  0  0  0  0  0  0  0  0  0  0  0
    0.7508    0.2999    2.8639 Br  0  0  0  0  0  0  0  0  0  0  0  0
   -1.6422   -0.0072    1.3677 C   0  0  0  0  0  0  0  0  0  0  0  0
   -2.4234   -0.0256    0.2085 C   0  0  0  0  0  0  0  0  0  0  0  0
   -3.8718   -0.2900    0.3199 C   0  0  0  0  0  0  0  0  0  0  0  0
   -4.6064   -0.2826   -0.6592 O   0  0  0  0  0  0  0  0  0  0  0  0
   -1.8505    0.2130   -1.0454 C   0  0  0  0  0  0  0  0  0  0  0  0
   -0.4811    0.4611   -1.1418 C   0  0  0  0  0  0  0  0  0  0  0  0
    0.2563    0.8092   -2.8538 Br  0  0  0  0  0  0  0  0  0  0  0  0
    4.2034    0.4183    0.5641 H   0  0  0  0  0  0  0  0  0  0  0  0
    4.4637   -0.9960   -0.4779 H   0  0  0  0  0  0  0  0  0  0  0  0
    4.0305    0.5574   -1.2201 H   0  0  0  0  0  0  0  0  0  0  0  0
   -2.0945   -0.1829    2.3407 H   0  0  0  0  0  0  0  0  0  0  0  0
   -4.2634   -0.4919    1.3311 H   0  0  0  0  0  0  0  0  0  0  0  0
   -2.4756    0.2045   -1.9368 H   0  0  0  0  0  0  0  0  0  0  0  0
  1  2  1  0
  2  3  2  0
  2  4  1  0
  4  5  1  0
  5  6  2  0
  6  7  1  0
  6  8  1  0
  8  9  2  0
  9 10  1  0
 10 11  2  0
  9 12  1  0
 12 13  2  0
 13 14  1  0
 13  5  1  0
  1 15  1  0
  1 16  1  0
  1 17  1  0
  8 18  1  0
 10 19  1  0
 12 20  1  0
M  END
