
     RDKit          3D

 17 18  0  0  0  0  0  0  0  0999 V2000
   -4.0841   -1.1974    0.0865 Br  0  0  0  0  0  0  0  0  0  0  0  0
   -2.3770   -0.3895    0.0364 C   0  0  0  0  0  0  0  0  0  0  0  0
   -2.2674    0.9945   -0.0273 C   0  0  0  0  0  0  0  0  0  0  0  0
   -0.9999    1.5847   -0.0641 C   0  0  0  0  0  0  0  0  0  0  0  0
    0.1613    0.8236   -0.0387 C   0  0  0  0  0  0  0  0  0  0  0  0
    1.3524    1.4410   -0.0761 N   0  0  0  0  0  0  0  0  0  0  0  0
    2.4653    0.6760   -0.0501 C   0  0  0  0  0  0  0  0  0  0  0  0
    4.1400    1.5653   -0.1037 Br  0  0  0  0  0  0  0  0  0  0  0  0
    2.4476   -0.7066    0.0128 C   0  0  0  0  0  0  0  0  0  0  0  0
    1.2123   -1.3436    0.0515 C   0  0  0  0  0  0  0  0  0  0  0  0
    0.0376   -0.5820    0.0261 C   0  0  0  0  0  0  0  0  0  0  0  0
   -1.2330   -1.1827    0.0634 C   0  0  0  0  0  0  0  0  0  0  0  0
   -3.1522    1.6253   -0.0490 H   0  0  0  0  0  0  0  0  0  0  0  0
   -0.9160    2.6683   -0.1140 H   0  0  0  0  0  0  0  0  0  0  0  0
    3.3657   -1.2830    0.0318 H   0  0  0  0  0  0  0  0  0  0  0  0
    1.1725   -2.4290    0.1011 H   0  0  0  0  0  0  0  0  0  0  0  0
   -1.3251   -2.2650    0.1133 H   0  0  0  0  0  0  0  0  0  0  0  0
  1  2  1  0
  2  3  2  0
  3  4  1  0
  4  5  2  0
  5  6  1  0
  6  7  2  0
  7  8  1  0
  7  9  1  0
  9 10  2  0
 10 11  1  0
 11 12  2  0
 12  2  1  0
 11  5  1  0
  3 13  1  0
  4 14  1  0
  9 15  1  0
 10 16  1  0
 12 17  1  0
M  END
