
     RDKit          3D

 30 31  0  0  0  0  0  0  0  0999 V2000
    5.0148    0.3363    0.0335 N   0  0  0  0  0  0  0  0  0  0  0  0
    3.6209    0.1218   -0.0080 C   0  0  0  0  0  0  0  0  0  0  0  0
    2.7885    0.5695    1.0322 C   0  0  0  0  0  0  0  0  0  0  0  0
    3.5251    1.2928    2.6314 Br  0  0  0  0  0  0  0  0  0  0  0  0
    1.3934    0.4779    0.9428 C   0  0  0  0  0  0  0  0  0  0  0  0
    0.7817   -0.0315   -0.2106 C   0  0  0  0  0  0  0  0  0  0  0  0
   -0.7279   -0.1425   -0.3315 C   0  0  0  0  0  0  0  0  0  0  0  0
   -1.4413    1.1995   -0.1116 C   0  0  0  0  0  0  0  0  0  0  0  0
   -2.9405    1.0965   -0.4080 C   0  0  0  0  0  0  0  0  0  0  0  0
   -3.5269   -0.2887   -0.1286 C   0  0  0  0  0  0  0  0  0  0  0  0
   -2.7644   -1.0182    0.9685 C   0  0  0  0  0  0  0  0  0  0  0  0
   -1.2931   -1.2338    0.6009 C   0  0  0  0  0  0  0  0  0  0  0  0
    1.6008   -0.4422   -1.2707 C   0  0  0  0  0  0  0  0  0  0  0  0
    2.9954   -0.3480   -1.1757 C   0  0  0  0  0  0  0  0  0  0  0  0
    4.0228   -0.9108   -2.6762 Br  0  0  0  0  0  0  0  0  0  0  0  0
    5.5351   -0.2792   -0.5863 H   0  0  0  0  0  0  0  0  0  0  0  0
    5.3883    0.3711    0.9785 H   0  0  0  0  0  0  0  0  0  0  0  0
    0.7817    0.8103    1.7788 H   0  0  0  0  0  0  0  0  0  0  0  0
   -0.9567   -0.4488   -1.3629 H   0  0  0  0  0  0  0  0  0  0  0  0
   -1.3112    1.5303    0.9270 H   0  0  0  0  0  0  0  0  0  0  0  0
   -1.0016    1.9846   -0.7393 H   0  0  0  0  0  0  0  0  0  0  0  0
   -3.4683    1.8502    0.1889 H   0  0  0  0  0  0  0  0  0  0  0  0
   -3.1295    1.3524   -1.4577 H   0  0  0  0  0  0  0  0  0  0  0  0
   -3.4956   -0.8885   -1.0470 H   0  0  0  0  0  0  0  0  0  0  0  0
   -4.5842   -0.1917    0.1430 H   0  0  0  0  0  0  0  0  0  0  0  0
   -3.2350   -1.9853    1.1791 H   0  0  0  0  0  0  0  0  0  0  0  0
   -2.8239   -0.4340    1.8956 H   0  0  0  0  0  0  0  0  0  0  0  0
   -1.1812   -2.2060    0.1028 H   0  0  0  0  0  0  0  0  0  0  0  0
   -0.7183   -1.3135    1.5320 H   0  0  0  0  0  0  0  0  0  0  0  0
    1.1514   -0.8303   -2.1826 H   0  0  0  0  0  0  0  0  0  0  0  0
  1  2  1  0
  2  3  2  0
  3  4  1  0
  3  5  1  0
  5  6  2  0
  6  7  1  0
  7  8  1  0
  8  9  1  0
  9 10  1  0
 10 11  1  0
 11 12  1  0
  6 13  1  0
 13 14  2  0
 14 15  1  0
 14  2  1  0
 12  7  1  0
  1 16  1  0
  1 17  1  0
  5 18  1  0
  7 19  1  0
  8 20  1  0
  8 21  1  0
  9 22  1  0
  9 23  1  0
 10 24  1  0
 10 25  1  0
 11 26  1  0
 11 27  1  0
 12 28  1  0
 12 29  1  0
 13 30  1  0
M  END
