
     RDKit          3D

 65 67  0  0  0  0  0  0  0  0999 V2000
    5.8643    2.2988    0.3517 C   0  0  0  0  0  0  0  0  0  0  0  0
    4.4937    1.8048   -0.0822 C   0  0  0  0  0  0  0  0  0  0  0  0
    4.5603    1.1053   -1.4386 C   0  0  0  0  0  0  0  0  0  0  0  0
    3.1970    0.7798   -2.0616 C   0  0  0  0  0  0  0  0  0  0  0  0
    2.3329   -0.3449   -1.4298 C   0  0  0  0  0  0  0  0  0  0  0  0
    3.1110   -1.6858   -1.3720 C   0  0  0  0  0  0  0  0  0  0  0  0
    3.7582   -2.0632   -0.0474 C   0  0  0  0  0  0  0  0  0  0  0  0
    1.6554    0.1203   -0.1160 C   0  0  0  0  0  0  0  0  0  0  0  0
    0.1692   -0.2920    0.1392 C   0  0  0  0  0  0  0  0  0  0  0  0
   -0.1430    0.0184    1.6224 C   0  0  0  0  0  0  0  0  0  0  0  0
   -0.4255   -1.1307    2.3391 C   0  0  0  0  0  0  0  0  0  0  0  0
   -0.3665   -2.2447    1.4714 C   0  0  0  0  0  0  0  0  0  0  0  0
   -0.0427   -1.8163    0.1940 C   0  0  0  0  0  0  0  0  0  0  0  0
   -0.0798   -2.8903   -0.7281 C   0  0  0  0  0  0  0  0  0  0  0  0
   -0.3596   -4.0698   -0.0658 C   0  0  0  0  0  0  0  0  0  0  0  0
   -0.6218   -3.8837    1.6125 S   0  0  0  0  0  0  0  0  0  0  0  0
   -0.4668   -5.7619   -0.9495 Br  0  0  0  0  0  0  0  0  0  0  0  0
   -0.7549   -0.8759    3.9507 S   0  0  0  0  0  0  0  0  0  0  0  0
   -0.5009    0.8049    3.7410 C   0  0  0  0  0  0  0  0  0  0  0  0
   -0.1608    1.1667    2.4519 C   0  0  0  0  0  0  0  0  0  0  0  0
   -0.6710    2.0623    5.1732 Br  0  0  0  0  0  0  0  0  0  0  0  0
   -0.7987    0.4213   -0.8477 C   0  0  0  0  0  0  0  0  0  0  0  0
   -2.3201    0.0758   -0.7652 C   0  0  0  0  0  0  0  0  0  0  0  0
   -2.9591    0.1030   -2.1756 C   0  0  0  0  0  0  0  0  0  0  0  0
   -2.5222   -1.0568   -3.0624 C   0  0  0  0  0  0  0  0  0  0  0  0
   -3.0528    1.0571    0.1834 C   0  0  0  0  0  0  0  0  0  0  0  0
   -4.5215    0.6955    0.4390 C   0  0  0  0  0  0  0  0  0  0  0  0
   -5.0924    1.4834    1.6213 C   0  0  0  0  0  0  0  0  0  0  0  0
   -6.5667    1.1701    1.8358 C   0  0  0  0  0  0  0  0  0  0  0  0
    6.5790    1.4711    0.4062 H   0  0  0  0  0  0  0  0  0  0  0  0
    6.2526    3.0422   -0.3517 H   0  0  0  0  0  0  0  0  0  0  0  0
    5.8036    2.7649    1.3406 H   0  0  0  0  0  0  0  0  0  0  0  0
    3.8066    2.6561   -0.1322 H   0  0  0  0  0  0  0  0  0  0  0  0
    4.1183    1.1240    0.6848 H   0  0  0  0  0  0  0  0  0  0  0  0
    5.1767    0.2031   -1.3673 H   0  0  0  0  0  0  0  0  0  0  0  0
    5.0837    1.7657   -2.1423 H   0  0  0  0  0  0  0  0  0  0  0  0
    2.5999    1.6991   -2.1294 H   0  0  0  0  0  0  0  0  0  0  0  0
    3.3896    0.4859   -3.1022 H   0  0  0  0  0  0  0  0  0  0  0  0
    1.5401   -0.5053   -2.1703 H   0  0  0  0  0  0  0  0  0  0  0  0
    3.8827   -1.6933   -2.1497 H   0  0  0  0  0  0  0  0  0  0  0  0
    2.4369   -2.5014   -1.6521 H   0  0  0  0  0  0  0  0  0  0  0  0
    4.3826   -1.2609    0.3500 H   0  0  0  0  0  0  0  0  0  0  0  0
    3.0028   -2.3257    0.6972 H   0  0  0  0  0  0  0  0  0  0  0  0
    4.3950   -2.9438   -0.1813 H   0  0  0  0  0  0  0  0  0  0  0  0
    1.6731    1.2186   -0.0882 H   0  0  0  0  0  0  0  0  0  0  0  0
    2.2658   -0.1795    0.7428 H   0  0  0  0  0  0  0  0  0  0  0  0
    0.0858   -2.8156   -1.7951 H   0  0  0  0  0  0  0  0  0  0  0  0
    0.0459    2.1796    2.1312 H   0  0  0  0  0  0  0  0  0  0  0  0
   -0.4499    0.1979   -1.8584 H   0  0  0  0  0  0  0  0  0  0  0  0
   -0.6824    1.5081   -0.7418 H   0  0  0  0  0  0  0  0  0  0  0  0
   -2.4566   -0.9354   -0.3651 H   0  0  0  0  0  0  0  0  0  0  0  0
   -4.0480    0.0433   -2.1011 H   0  0  0  0  0  0  0  0  0  0  0  0
   -2.7312    1.0523   -2.6738 H   0  0  0  0  0  0  0  0  0  0  0  0
   -1.4629   -0.9959   -3.3255 H   0  0  0  0  0  0  0  0  0  0  0  0
   -3.0941   -1.0493   -3.9970 H   0  0  0  0  0  0  0  0  0  0  0  0
   -2.7011   -2.0172   -2.5683 H   0  0  0  0  0  0  0  0  0  0  0  0
   -2.5439    1.0751    1.1490 H   0  0  0  0  0  0  0  0  0  0  0  0
   -2.9949    2.0776   -0.2169 H   0  0  0  0  0  0  0  0  0  0  0  0
   -4.6137   -0.3787    0.6412 H   0  0  0  0  0  0  0  0  0  0  0  0
   -5.1197    0.9141   -0.4524 H   0  0  0  0  0  0  0  0  0  0  0  0
   -4.5359    1.2349    2.5330 H   0  0  0  0  0  0  0  0  0  0  0  0
   -4.9712    2.5605    1.4499 H   0  0  0  0  0  0  0  0  0  0  0  0
   -6.7199    0.0980    2.0078 H   0  0  0  0  0  0  0  0  0  0  0  0
   -7.1594    1.4652    0.9629 H   0  0  0  0  0  0  0  0  0  0  0  0
   -6.9515    1.7131    2.7066 H   0  0  0  0  0  0  0  0  0  0  0  0
  1  2  1  0
  2  3  1  0
  3  4  1  0
  4  5  1  0
  5  6  1  0
  6  7  1  0
  5  8  1  0
  8  9  1  0
  9 10  1  0
 10 11  2  0
 11 12  1  0
 12 13  2  0
 13 14  1  0
 14 15  2  0
 15 16  1  0
 15 17  1  0
 11 18  1  0
 18 19  1  0
 19 20  2  0
 19 21  1  0
  9 22  1  0
 22 23  1  0
 23 24  1  0
 24 25  1  0
 23 26  1  0
 26 27  1  0
 27 28  1  0
 28 29  1  0
 13  9  1  0
 20 10  1  0
 16 12  1  0
  1 30  1  0
  1 31  1  0
  1 32  1  0
  2 33  1  0
  2 34  1  0
  3 35  1  0
  3 36  1  0
  4 37  1  0
  4 38  1  0
  5 39  1  0
  6 40  1  0
  6 41  1  0
  7 42  1  0
  7 43  1  0
  7 44  1  0
  8 45  1  0
  8 46  1  0
 14 47  1  0
 20 48  1  0
 22 49  1  0
 22 50  1  0
 23 51  1  0
 24 52  1  0
 24 53  1  0
 25 54  1  0
 25 55  1  0
 25 56  1  0
 26 57  1  0
 26 58  1  0
 27 59  1  0
 27 60  1  0
 28 61  1  0
 28 62  1  0
 29 63  1  0
 29 64  1  0
 29 65  1  0
M  END
