
     RDKit          3D

 26 26  0  0  0  0  0  0  0  0999 V2000
   -1.9749    0.8137    1.4270 C   0  0  0  0  0  0  0  0  0  0  0  0
   -1.5284   -0.2109    0.3615 C   0  0  0  0  0  0  0  0  0  0  0  0
   -1.9087   -1.6124    0.8903 C   0  0  0  0  0  0  0  0  0  0  0  0
   -2.3323    0.0220   -0.9358 C   0  0  0  0  0  0  0  0  0  0  0  0
   -0.0260   -0.0397    0.0757 C   0  0  0  0  0  0  0  0  0  0  0  0
    0.4690    1.1900   -0.3970 C   0  0  0  0  0  0  0  0  0  0  0  0
    1.8323    1.3770   -0.6677 C   0  0  0  0  0  0  0  0  0  0  0  0
    2.3781    3.0801   -1.3202 Br  0  0  0  0  0  0  0  0  0  0  0  0
    2.7685    0.3567   -0.4454 C   0  0  0  0  0  0  0  0  0  0  0  0
    4.1145    0.5042   -0.8397 N   0  0  0  0  0  0  0  0  0  0  0  0
    2.2691   -0.8841   -0.0200 C   0  0  0  0  0  0  0  0  0  0  0  0
    3.4361   -2.3670    0.2394 Br  0  0  0  0  0  0  0  0  0  0  0  0
    0.9047   -1.0751    0.2520 C   0  0  0  0  0  0  0  0  0  0  0  0
   -3.0353    0.6887    1.6758 H   0  0  0  0  0  0  0  0  0  0  0  0
   -1.3989    0.6964    2.3526 H   0  0  0  0  0  0  0  0  0  0  0  0
   -1.8461    1.8476    1.0885 H   0  0  0  0  0  0  0  0  0  0  0  0
   -1.6624   -2.3978    0.1661 H   0  0  0  0  0  0  0  0  0  0  0  0
   -2.9855   -1.6822    1.0856 H   0  0  0  0  0  0  0  0  0  0  0  0
   -1.3948   -1.8415    1.8312 H   0  0  0  0  0  0  0  0  0  0  0  0
   -3.4054   -0.1272   -0.7680 H   0  0  0  0  0  0  0  0  0  0  0  0
   -2.0182   -0.6721   -1.7244 H   0  0  0  0  0  0  0  0  0  0  0  0
   -2.2072    1.0387   -1.3241 H   0  0  0  0  0  0  0  0  0  0  0  0
   -0.2143    2.0194   -0.5685 H   0  0  0  0  0  0  0  0  0  0  0  0
    4.4340    1.4693   -0.8272 H   0  0  0  0  0  0  0  0  0  0  0  0
    4.7449   -0.1382   -0.3669 H   0  0  0  0  0  0  0  0  0  0  0  0
    0.5871   -2.0556    0.5965 H   0  0  0  0  0  0  0  0  0  0  0  0
  1  2  1  0
  2  3  1  0
  2  4  1  0
  2  5  1  0
  5  6  2  0
  6  7  1  0
  7  8  1  0
  7  9  2  0
  9 10  1  0
  9 11  1  0
 11 12  1  0
 11 13  2  0
 13  5  1  0
  1 14  1  0
  1 15  1  0
  1 16  1  0
  3 17  1  0
  3 18  1  0
  3 19  1  0
  4 20  1  0
  4 21  1  0
  4 22  1  0
  6 23  1  0
 10 24  1  0
 10 25  1  0
 13 26  1  0
M  END
