
     RDKit          3D

 16 16  0  0  0  0  0  0  0  0999 V2000
    2.5701    0.1687    0.4006 C   0  0  0  0  0  0  0  0  0  0  0  0
    1.7659    0.1342   -0.7811 O   0  0  0  0  0  0  0  0  0  0  0  0
    0.4353    0.0377   -0.4605 C   0  0  0  0  0  0  0  0  0  0  0  0
   -0.3438    1.1949   -0.3192 C   0  0  0  0  0  0  0  0  0  0  0  0
    0.3894    2.9317   -0.5484 Br  0  0  0  0  0  0  0  0  0  0  0  0
   -1.7052    1.0976   -0.0219 C   0  0  0  0  0  0  0  0  0  0  0  0
   -2.2923   -0.1586    0.1106 C   0  0  0  0  0  0  0  0  0  0  0  0
   -3.9695   -0.2796    0.4758 Cl  0  0  0  0  0  0  0  0  0  0  0  0
   -1.5401   -1.3179   -0.0637 C   0  0  0  0  0  0  0  0  0  0  0  0
   -0.1788   -1.2188   -0.3610 C   0  0  0  0  0  0  0  0  0  0  0  0
    0.7833   -2.8308   -0.6483 Br  0  0  0  0  0  0  0  0  0  0  0  0
    3.6161    0.2456    0.0894 H   0  0  0  0  0  0  0  0  0  0  0  0
    2.3368    1.0402    1.0208 H   0  0  0  0  0  0  0  0  0  0  0  0
    2.4589   -0.7473    0.9898 H   0  0  0  0  0  0  0  0  0  0  0  0
   -2.3095    1.9936    0.0957 H   0  0  0  0  0  0  0  0  0  0  0  0
   -2.0166   -2.2913    0.0215 H   0  0  0  0  0  0  0  0  0  0  0  0
  1  2  1  0
  2  3  1  0
  3  4  2  0
  4  5  1  0
  4  6  1  0
  6  7  2  0
  7  8  1  0
  7  9  1  0
  9 10  2  0
 10 11  1  0
 10  3  1  0
  1 12  1  0
  1 13  1  0
  1 14  1  0
  6 15  1  0
  9 16  1  0
M  END
