
     RDKit          3D

 17 17  0  0  0  0  0  0  0  0999 V2000
    3.0143    0.2132   -0.0539 N   0  0  0  0  0  0  0  0  0  0  0  0
    1.6138    0.0920    0.0518 C   0  0  0  0  0  0  0  0  0  0  0  0
    0.8090    1.2149    0.3165 C   0  0  0  0  0  0  0  0  0  0  0  0
    1.5877    2.8972    0.7458 Br  0  0  0  0  0  0  0  0  0  0  0  0
   -0.5886    1.1332    0.2942 C   0  0  0  0  0  0  0  0  0  0  0  0
   -1.2253   -0.0741   -0.0237 C   0  0  0  0  0  0  0  0  0  0  0  0
   -2.7306   -0.1594   -0.0742 C   0  0  0  0  0  0  0  0  0  0  0  0
   -3.2232    0.1455   -1.3048 F   0  0  0  0  0  0  0  0  0  0  0  0
   -3.2030   -1.4010    0.2243 F   0  0  0  0  0  0  0  0  0  0  0  0
   -3.3406    0.6902    0.7975 F   0  0  0  0  0  0  0  0  0  0  0  0
   -0.4359   -1.1875   -0.3422 C   0  0  0  0  0  0  0  0  0  0  0  0
    0.9612   -1.0980   -0.3178 C   0  0  0  0  0  0  0  0  0  0  0  0
    1.9532   -2.6556   -0.7769 Br  0  0  0  0  0  0  0  0  0  0  0  0
    3.5093   -0.6681    0.0573 H   0  0  0  0  0  0  0  0  0  0  0  0
    3.4016    0.9685    0.5061 H   0  0  0  0  0  0  0  0  0  0  0  0
   -1.1878    2.0154    0.5179 H   0  0  0  0  0  0  0  0  0  0  0  0
   -0.9152   -2.1264   -0.6178 H   0  0  0  0  0  0  0  0  0  0  0  0
  1  2  1  0
  2  3  2  0
  3  4  1  0
  3  5  1  0
  5  6  2  0
  6  7  1  0
  7  8  1  0
  7  9  1  0
  7 10  1  0
  6 11  1  0
 11 12  2  0
 12 13  1  0
 12  2  1  0
  1 14  1  0
  1 15  1  0
  5 16  1  0
 11 17  1  0
M  END
