
     RDKit          3D

 15 15  0  0  0  0  0  0  0  0999 V2000
    3.6721   -0.2846    0.5818 F   0  0  0  0  0  0  0  0  0  0  0  0
    2.4747    0.2979    0.3268 C   0  0  0  0  0  0  0  0  0  0  0  0
    2.5938    0.9314   -0.8651 F   0  0  0  0  0  0  0  0  0  0  0  0
    1.5148   -0.7410    0.2086 O   0  0  0  0  0  0  0  0  0  0  0  0
    0.2100   -0.3722    0.0381 C   0  0  0  0  0  0  0  0  0  0  0  0
   -0.7058   -1.4174    0.1346 C   0  0  0  0  0  0  0  0  0  0  0  0
   -2.0521   -1.1359   -0.0254 C   0  0  0  0  0  0  0  0  0  0  0  0
   -3.3059   -2.5513    0.1139 Br  0  0  0  0  0  0  0  0  0  0  0  0
   -2.5294    0.0986   -0.2735 N   0  0  0  0  0  0  0  0  0  0  0  0
   -1.6241    1.0906   -0.3777 C   0  0  0  0  0  0  0  0  0  0  0  0
   -2.2780    2.8342   -0.7433 Br  0  0  0  0  0  0  0  0  0  0  0  0
   -0.2551    0.9101   -0.2309 C   0  0  0  0  0  0  0  0  0  0  0  0
    2.2444    1.0086    1.1280 H   0  0  0  0  0  0  0  0  0  0  0  0
   -0.3661   -2.4291    0.3322 H   0  0  0  0  0  0  0  0  0  0  0  0
    0.4066    1.7599   -0.3481 H   0  0  0  0  0  0  0  0  0  0  0  0
  1  2  1  0
  2  3  1  0
  2  4  1  0
  4  5  1  0
  5  6  2  0
  6  7  1  0
  7  8  1  0
  7  9  2  0
  9 10  1  0
 10 11  1  0
 10 12  2  0
 12  5  1  0
  2 13  1  0
  6 14  1  0
 12 15  1  0
M  END
