
     RDKit          3D

 17 17  0  0  0  0  0  0  0  0999 V2000
   -2.5219   -0.8027    0.0357 C   0  0  0  0  0  0  0  0  0  0  0  0
   -1.1858   -0.1223    0.0936 C   0  0  0  0  0  0  0  0  0  0  0  0
   -0.1194   -0.8912   -0.2550 N   0  0  0  0  0  0  0  0  0  0  0  0
    1.1238   -0.3403   -0.2259 C   0  0  0  0  0  0  0  0  0  0  0  0
    2.2465   -1.2529   -0.6238 C   0  0  0  0  0  0  0  0  0  0  0  0
    1.3347    0.9855    0.1498 C   0  0  0  0  0  0  0  0  0  0  0  0
    3.0543    1.7789    0.1994 Br  0  0  0  0  0  0  0  0  0  0  0  0
    0.2366    1.7663    0.5054 C   0  0  0  0  0  0  0  0  0  0  0  0
   -1.0406    1.2098    0.4783 C   0  0  0  0  0  0  0  0  0  0  0  0
   -2.5073    2.3040    0.9687 Br  0  0  0  0  0  0  0  0  0  0  0  0
   -3.1791   -0.2999   -0.6804 H   0  0  0  0  0  0  0  0  0  0  0  0
   -2.9918   -0.8127    1.0240 H   0  0  0  0  0  0  0  0  0  0  0  0
   -2.4124   -1.8430   -0.2893 H   0  0  0  0  0  0  0  0  0  0  0  0
    1.8644   -2.2468   -0.8808 H   0  0  0  0  0  0  0  0  0  0  0  0
    2.7675   -0.8613   -1.5029 H   0  0  0  0  0  0  0  0  0  0  0  0
    2.9548   -1.3740    0.2014 H   0  0  0  0  0  0  0  0  0  0  0  0
    0.3755    2.8026    0.8018 H   0  0  0  0  0  0  0  0  0  0  0  0
  1  2  1  0
  2  3  2  0
  3  4  1  0
  4  5  1  0
  4  6  2  0
  6  7  1  0
  6  8  1  0
  8  9  2  0
  9 10  1  0
  9  2  1  0
  1 11  1  0
  1 12  1  0
  1 13  1  0
  5 14  1  0
  5 15  1  0
  5 16  1  0
  8 17  1  0
M  END
