
     RDKit          3D

 26 26  0  0  0  0  0  0  0  0999 V2000
   -2.0382   -0.8445    1.3510 C   0  0  0  0  0  0  0  0  0  0  0  0
   -1.5698   -0.0156    0.1353 C   0  0  0  0  0  0  0  0  0  0  0  0
   -2.0932    1.4302    0.2739 C   0  0  0  0  0  0  0  0  0  0  0  0
   -2.2386   -0.6264   -1.1170 C   0  0  0  0  0  0  0  0  0  0  0  0
   -0.0320   -0.0047    0.0771 C   0  0  0  0  0  0  0  0  0  0  0  0
    0.6909   -0.4795   -1.0280 C   0  0  0  0  0  0  0  0  0  0  0  0
    2.0947   -0.4532   -1.0477 C   0  0  0  0  0  0  0  0  0  0  0  0
    2.9673   -1.1082   -2.6091 Br  0  0  0  0  0  0  0  0  0  0  0  0
    2.8379    0.0148    0.0471 C   0  0  0  0  0  0  0  0  0  0  0  0
    4.2386    0.1585   -0.0308 N   0  0  0  0  0  0  0  0  0  0  0  0
    2.1154    0.5336    1.1315 C   0  0  0  0  0  0  0  0  0  0  0  0
    3.0114    1.2694    2.6414 Br  0  0  0  0  0  0  0  0  0  0  0  0
    0.7134    0.5088    1.1547 C   0  0  0  0  0  0  0  0  0  0  0  0
   -3.1323   -0.8986    1.3947 H   0  0  0  0  0  0  0  0  0  0  0  0
   -1.6552   -1.8706    1.2997 H   0  0  0  0  0  0  0  0  0  0  0  0
   -1.7015   -0.4150    2.3009 H   0  0  0  0  0  0  0  0  0  0  0  0
   -3.1891    1.4546    0.2837 H   0  0  0  0  0  0  0  0  0  0  0  0
   -1.7540    1.9068    1.2001 H   0  0  0  0  0  0  0  0  0  0  0  0
   -1.7530    2.0545   -0.5609 H   0  0  0  0  0  0  0  0  0  0  0  0
   -1.9353   -1.6690   -1.2681 H   0  0  0  0  0  0  0  0  0  0  0  0
   -3.3314   -0.6186   -1.0247 H   0  0  0  0  0  0  0  0  0  0  0  0
   -1.9892   -0.0629   -2.0236 H   0  0  0  0  0  0  0  0  0  0  0  0
    0.1771   -0.8721   -1.9014 H   0  0  0  0  0  0  0  0  0  0  0  0
    4.6901    0.2012    0.8792 H   0  0  0  0  0  0  0  0  0  0  0  0
    4.6757   -0.5002   -0.6702 H   0  0  0  0  0  0  0  0  0  0  0  0
    0.2002    0.9067    2.0280 H   0  0  0  0  0  0  0  0  0  0  0  0
  1  2  1  0
  2  3  1  0
  2  4  1  0
  2  5  1  0
  5  6  2  0
  6  7  1  0
  7  8  1  0
  7  9  2  0
  9 10  1  0
  9 11  1  0
 11 12  1  0
 11 13  2  0
 13  5  1  0
  1 14  1  0
  1 15  1  0
  1 16  1  0
  3 17  1  0
  3 18  1  0
  3 19  1  0
  4 20  1  0
  4 21  1  0
  4 22  1  0
  6 23  1  0
 10 24  1  0
 10 25  1  0
 13 26  1  0
M  END
