
     RDKit          3D

 12 12  0  0  0  0  0  0  0  0999 V2000
    0.3019   -2.6045    0.1071 O   0  0  0  0  0  1  0  0  0  0  0  0
    0.1549   -1.3367    0.0550 N   0  0  0  0  0  4  0  0  0  0  0  0
    1.2339   -0.4769    0.2990 C   0  0  0  0  0  0  0  0  0  0  0  0
    2.9686   -1.1422    0.7192 Br  0  0  0  0  0  0  0  0  0  0  0  0
    1.0716    0.9150    0.2415 C   0  0  0  0  0  0  0  0  0  0  0  0
   -0.1694    1.4618   -0.0601 C   0  0  0  0  0  0  0  0  0  0  0  0
   -1.2499    0.6235   -0.3048 C   0  0  0  0  0  0  0  0  0  0  0  0
   -1.0896   -0.7687   -0.2478 C   0  0  0  0  0  0  0  0  0  0  0  0
   -2.6224   -1.8444   -0.5964 Br  0  0  0  0  0  0  0  0  0  0  0  0
    1.9154    1.5750    0.4325 H   0  0  0  0  0  0  0  0  0  0  0  0
   -0.2947    2.5423   -0.1046 H   0  0  0  0  0  0  0  0  0  0  0  0
   -2.2203    1.0557   -0.5407 H   0  0  0  0  0  0  0  0  0  0  0  0
  1  2  1  0
  2  3  2  0
  3  4  1  0
  3  5  1  0
  5  6  2  0
  6  7  1  0
  7  8  2  0
  8  9  1  0
  8  2  1  0
  5 10  1  0
  6 11  1  0
  7 12  1  0
M  CHG  2   1  -1   2   1
M  END
