
     RDKit          3D

 14 14  0  0  0  0  0  0  0  0999 V2000
    2.2693   -0.8405   -1.4340 O   0  0  0  0  0  0  0  0  0  0  0  0
    1.8037   -0.4156   -0.3964 C   0  0  0  0  0  0  0  0  0  0  0  0
    2.5464   -0.2185    0.7039 O   0  0  0  0  0  0  0  0  0  0  0  0
    0.3994   -0.1063   -0.1478 C   0  0  0  0  0  0  0  0  0  0  0  0
   -0.5718   -1.0114   -0.5517 C   0  0  0  0  0  0  0  0  0  0  0  0
   -0.2332   -2.1741   -1.1274 F   0  0  0  0  0  0  0  0  0  0  0  0
   -1.8997   -0.6898   -0.3175 C   0  0  0  0  0  0  0  0  0  0  0  0
   -3.2629   -1.9020   -0.8376 Br  0  0  0  0  0  0  0  0  0  0  0  0
   -2.2935    0.4611    0.2786 N   0  0  0  0  0  0  0  0  0  0  0  0
   -1.3214    1.3275    0.6517 C   0  0  0  0  0  0  0  0  0  0  0  0
   -1.8767    2.9467    1.4695 Br  0  0  0  0  0  0  0  0  0  0  0  0
    0.0300    1.0879    0.4567 C   0  0  0  0  0  0  0  0  0  0  0  0
    0.9505    1.9961    0.8129 F   0  0  0  0  0  0  0  0  0  0  0  0
    3.4599   -0.4610    0.4392 H   0  0  0  0  0  0  0  0  0  0  0  0
  1  2  2  0
  2  3  1  0
  2  4  1  0
  4  5  2  0
  5  6  1  0
  5  7  1  0
  7  8  1  0
  7  9  2  0
  9 10  1  0
 10 11  1  0
 10 12  2  0
 12 13  1  0
 12  4  1  0
  3 14  1  0
M  END
