
     RDKit          3D

 92 94  0  0  0  0  0  0  0  0999 V2000
  -10.4327   -0.4288    0.6944 C   0  0  0  0  0  0  0  0  0  0  0  0
  -10.0150    1.0238    0.8559 C   0  0  0  0  0  0  0  0  0  0  0  0
   -8.7251    1.1994    1.6581 C   0  0  0  0  0  0  0  0  0  0  0  0
   -7.4817    0.6738    0.9301 C   0  0  0  0  0  0  0  0  0  0  0  0
   -6.2163    0.9342    1.7479 C   0  0  0  0  0  0  0  0  0  0  0  0
   -4.9688    0.1769    1.2723 C   0  0  0  0  0  0  0  0  0  0  0  0
   -4.2934    0.7259   -0.0097 C   0  0  0  0  0  0  0  0  0  0  0  0
   -4.9107    0.1033   -1.2828 C   0  0  0  0  0  0  0  0  0  0  0  0
   -4.3535    0.6178   -2.6184 C   0  0  0  0  0  0  0  0  0  0  0  0
   -4.3860    2.1343   -2.8212 C   0  0  0  0  0  0  0  0  0  0  0  0
   -5.7866    2.7229   -2.7812 C   0  0  0  0  0  0  0  0  0  0  0  0
   -2.7713    0.4584    0.0659 C   0  0  0  0  0  0  0  0  0  0  0  0
   -2.5323   -0.9541    0.1712 O   0  0  0  0  0  0  0  0  0  0  0  0
   -1.1716   -1.2000    0.3035 C   0  0  0  0  0  0  0  0  0  0  0  0
   -0.5990   -1.2089    1.5913 C   0  0  0  0  0  0  0  0  0  0  0  0
   -1.1941   -1.0129    2.8886 C   0  0  0  0  0  0  0  0  0  0  0  0
   -0.2737   -1.0977    3.8964 C   0  0  0  0  0  0  0  0  0  0  0  0
    1.2900   -1.4033    3.3476 S   0  0  0  0  0  0  0  0  0  0  0  0
    0.7728   -1.4518    1.6975 C   0  0  0  0  0  0  0  0  0  0  0  0
    1.5475   -1.6932    0.5545 C   0  0  0  0  0  0  0  0  0  0  0  0
    0.9574   -1.7817   -0.7216 C   0  0  0  0  0  0  0  0  0  0  0  0
   -0.4122   -1.5291   -0.8292 C   0  0  0  0  0  0  0  0  0  0  0  0
   -0.9447   -1.6887   -2.4670 S   0  0  0  0  0  0  0  0  0  0  0  0
    0.6039   -2.0762   -3.0063 C   0  0  0  0  0  0  0  0  0  0  0  0
    1.5324   -2.0990   -2.0036 C   0  0  0  0  0  0  0  0  0  0  0  0
    1.0195   -2.4496   -4.8321 Br  0  0  0  0  0  0  0  0  0  0  0  0
    2.9065   -1.9440    0.6886 O   0  0  0  0  0  0  0  0  0  0  0  0
    3.6523   -0.7419    0.4629 C   0  0  0  0  0  0  0  0  0  0  0  0
    5.1667   -1.0323    0.5501 C   0  0  0  0  0  0  0  0  0  0  0  0
    5.6620   -1.9133   -0.6247 C   0  0  0  0  0  0  0  0  0  0  0  0
    5.2493   -3.3883   -0.5305 C   0  0  0  0  0  0  0  0  0  0  0  0
    5.9385   -4.2674   -1.5770 C   0  0  0  0  0  0  0  0  0  0  0  0
    5.5141   -3.9500   -3.0024 C   0  0  0  0  0  0  0  0  0  0  0  0
    5.9154    0.3226    0.5850 C   0  0  0  0  0  0  0  0  0  0  0  0
    7.3995    0.1964    0.9381 C   0  0  0  0  0  0  0  0  0  0  0  0
    8.0684    1.5196    1.3335 C   0  0  0  0  0  0  0  0  0  0  0  0
    8.2455    2.5268    0.1911 C   0  0  0  0  0  0  0  0  0  0  0  0
    7.0798    3.4904   -0.0523 C   0  0  0  0  0  0  0  0  0  0  0  0
    6.7818    4.4046    1.1263 C   0  0  0  0  0  0  0  0  0  0  0  0
   -0.7164   -0.8909    5.7429 Br  0  0  0  0  0  0  0  0  0  0  0  0
  -10.5198   -0.9226    1.6688 H   0  0  0  0  0  0  0  0  0  0  0  0
   -9.7161   -0.9892    0.0883 H   0  0  0  0  0  0  0  0  0  0  0  0
  -11.4050   -0.4869    0.1968 H   0  0  0  0  0  0  0  0  0  0  0  0
  -10.8188    1.5617    1.3704 H   0  0  0  0  0  0  0  0  0  0  0  0
   -9.9079    1.4860   -0.1318 H   0  0  0  0  0  0  0  0  0  0  0  0
   -8.8274    0.6998    2.6298 H   0  0  0  0  0  0  0  0  0  0  0  0
   -8.5897    2.2701    1.8635 H   0  0  0  0  0  0  0  0  0  0  0  0
   -7.5817   -0.4019    0.7453 H   0  0  0  0  0  0  0  0  0  0  0  0
   -7.4098    1.1782   -0.0381 H   0  0  0  0  0  0  0  0  0  0  0  0
   -6.4041    0.6265    2.7851 H   0  0  0  0  0  0  0  0  0  0  0  0
   -6.0104    2.0115    1.7801 H   0  0  0  0  0  0  0  0  0  0  0  0
   -4.2490    0.2515    2.0984 H   0  0  0  0  0  0  0  0  0  0  0  0
   -5.1944   -0.8921    1.1645 H   0  0  0  0  0  0  0  0  0  0  0  0
   -4.4341    1.8130   -0.0319 H   0  0  0  0  0  0  0  0  0  0  0  0
   -5.9914    0.2585   -1.2917 H   0  0  0  0  0  0  0  0  0  0  0  0
   -4.7747   -0.9859   -1.2585 H   0  0  0  0  0  0  0  0  0  0  0  0
   -4.9188    0.1408   -3.4294 H   0  0  0  0  0  0  0  0  0  0  0  0
   -3.3206    0.2769   -2.7402 H   0  0  0  0  0  0  0  0  0  0  0  0
   -3.9434    2.3591   -3.7983 H   0  0  0  0  0  0  0  0  0  0  0  0
   -3.7541    2.6329   -2.0776 H   0  0  0  0  0  0  0  0  0  0  0  0
   -6.4347    2.2435   -3.5207 H   0  0  0  0  0  0  0  0  0  0  0  0
   -5.7497    3.7941   -3.0032 H   0  0  0  0  0  0  0  0  0  0  0  0
   -6.2417    2.6069   -1.7950 H   0  0  0  0  0  0  0  0  0  0  0  0
   -2.3645    0.9771    0.9441 H   0  0  0  0  0  0  0  0  0  0  0  0
   -2.2656    0.8643   -0.8174 H   0  0  0  0  0  0  0  0  0  0  0  0
   -2.2501   -0.8304    3.0459 H   0  0  0  0  0  0  0  0  0  0  0  0
    2.5787   -2.3338   -2.1539 H   0  0  0  0  0  0  0  0  0  0  0  0
    3.3786   -0.0059    1.2309 H   0  0  0  0  0  0  0  0  0  0  0  0
    3.4153   -0.3159   -0.5208 H   0  0  0  0  0  0  0  0  0  0  0  0
    5.3617   -1.5666    1.4888 H   0  0  0  0  0  0  0  0  0  0  0  0
    6.7563   -1.8866   -0.6649 H   0  0  0  0  0  0  0  0  0  0  0  0
    5.3064   -1.4845   -1.5694 H   0  0  0  0  0  0  0  0  0  0  0  0
    5.5103   -3.7701    0.4641 H   0  0  0  0  0  0  0  0  0  0  0  0
    4.1680   -3.5006   -0.6448 H   0  0  0  0  0  0  0  0  0  0  0  0
    5.6966   -5.3148   -1.3656 H   0  0  0  0  0  0  0  0  0  0  0  0
    7.0265   -4.1698   -1.4900 H   0  0  0  0  0  0  0  0  0  0  0  0
    5.9648   -4.6665   -3.6965 H   0  0  0  0  0  0  0  0  0  0  0  0
    4.4259   -4.0121   -3.1122 H   0  0  0  0  0  0  0  0  0  0  0  0
    5.8376   -2.9507   -3.3048 H   0  0  0  0  0  0  0  0  0  0  0  0
    5.4370    0.9737    1.3282 H   0  0  0  0  0  0  0  0  0  0  0  0
    5.8082    0.8101   -0.3895 H   0  0  0  0  0  0  0  0  0  0  0  0
    7.5058   -0.4942    1.7831 H   0  0  0  0  0  0  0  0  0  0  0  0
    7.9539   -0.2436    0.1017 H   0  0  0  0  0  0  0  0  0  0  0  0
    9.0731    1.2654    1.6985 H   0  0  0  0  0  0  0  0  0  0  0  0
    7.5467    1.9656    2.1856 H   0  0  0  0  0  0  0  0  0  0  0  0
    8.4697    1.9930   -0.7401 H   0  0  0  0  0  0  0  0  0  0  0  0
    9.1344    3.1329    0.4106 H   0  0  0  0  0  0  0  0  0  0  0  0
    6.1711    2.9522   -0.3304 H   0  0  0  0  0  0  0  0  0  0  0  0
    7.3368    4.1189   -0.9143 H   0  0  0  0  0  0  0  0  0  0  0  0
    6.3629    3.8498    1.9703 H   0  0  0  0  0  0  0  0  0  0  0  0
    7.6862    4.9212    1.4637 H   0  0  0  0  0  0  0  0  0  0  0  0
    6.0467    5.1621    0.8347 H   0  0  0  0  0  0  0  0  0  0  0  0
  1  2  1  0
  2  3  1  0
  3  4  1  0
  4  5  1  0
  5  6  1  0
  6  7  1  0
  7  8  1  0
  8  9  1  0
  9 10  1  0
 10 11  1  0
  7 12  1  0
 12 13  1  0
 13 14  1  0
 14 15  2  0
 15 16  1  0
 16 17  2  0
 17 18  1  0
 18 19  1  0
 19 20  2  0
 20 21  1  0
 21 22  2  0
 22 23  1  0
 23 24  1  0
 24 25  2  0
 24 26  1  0
 20 27  1  0
 27 28  1  0
 28 29  1  0
 29 30  1  0
 30 31  1  0
 31 32  1  0
 32 33  1  0
 29 34  1  0
 34 35  1  0
 35 36  1  0
 36 37  1  0
 37 38  1  0
 38 39  1  0
 17 40  1  0
 22 14  1  0
 19 15  1  0
 25 21  1  0
  1 41  1  0
  1 42  1  0
  1 43  1  0
  2 44  1  0
  2 45  1  0
  3 46  1  0
  3 47  1  0
  4 48  1  0
  4 49  1  0
  5 50  1  0
  5 51  1  0
  6 52  1  0
  6 53  1  0
  7 54  1  0
  8 55  1  0
  8 56  1  0
  9 57  1  0
  9 58  1  0
 10 59  1  0
 10 60  1  0
 11 61  1  0
 11 62  1  0
 11 63  1  0
 12 64  1  0
 12 65  1  0
 16 66  1  0
 25 67  1  0
 28 68  1  0
 28 69  1  0
 29 70  1  0
 30 71  1  0
 30 72  1  0
 31 73  1  0
 31 74  1  0
 32 75  1  0
 32 76  1  0
 33 77  1  0
 33 78  1  0
 33 79  1  0
 34 80  1  0
 34 81  1  0
 35 82  1  0
 35 83  1  0
 36 84  1  0
 36 85  1  0
 37 86  1  0
 37 87  1  0
 38 88  1  0
 38 89  1  0
 39 90  1  0
 39 91  1  0
 39 92  1  0
M  END
