
     RDKit          3D

 14 14  0  0  0  0  0  0  0  0999 V2000
   -2.0862   -0.3538    0.0688 C   0  0  0  0  0  0  0  0  0  0  0  0
   -0.6235   -0.0326   -0.0094 C   0  0  0  0  0  0  0  0  0  0  0  0
    0.3185   -0.9783    0.4119 C   0  0  0  0  0  0  0  0  0  0  0  0
    1.6773   -0.6859    0.3417 C   0  0  0  0  0  0  0  0  0  0  0  0
    2.0566    0.5512   -0.1507 C   0  0  0  0  0  0  0  0  0  0  0  0
    3.9042    0.9661   -0.2532 Br  0  0  0  0  0  0  0  0  0  0  0  0
    1.1825    1.4880   -0.5659 N   0  0  0  0  0  0  0  0  0  0  0  0
   -0.1336    1.1848   -0.4897 C   0  0  0  0  0  0  0  0  0  0  0  0
   -1.3173    2.5512   -1.0920 Br  0  0  0  0  0  0  0  0  0  0  0  0
   -2.6001    0.3519    0.7292 H   0  0  0  0  0  0  0  0  0  0  0  0
   -2.5398   -0.3259   -0.9270 H   0  0  0  0  0  0  0  0  0  0  0  0
   -2.2538   -1.3580    0.4737 H   0  0  0  0  0  0  0  0  0  0  0  0
    0.0017   -1.9455    0.7962 H   0  0  0  0  0  0  0  0  0  0  0  0
    2.4136   -1.4133    0.6662 H   0  0  0  0  0  0  0  0  0  0  0  0
  1  2  1  0
  2  3  2  0
  3  4  1  0
  4  5  2  0
  5  6  1  0
  5  7  1  0
  7  8  2  0
  8  9  1  0
  8  2  1  0
  1 10  1  0
  1 11  1  0
  1 12  1  0
  3 13  1  0
  4 14  1  0
M  END
