
     RDKit          3D

 14 14  0  0  0  0  0  0  0  0999 V2000
    2.2337   -0.5665   -0.2246 N   0  0  0  0  0  0  0  0  0  0  0  0
    0.8844   -0.2082   -0.0279 C   0  0  0  0  0  0  0  0  0  0  0  0
   -0.0676   -1.1767    0.3564 C   0  0  0  0  0  0  0  0  0  0  0  0
    0.4668   -2.9415    0.8243 Br  0  0  0  0  0  0  0  0  0  0  0  0
   -1.4286   -0.8716    0.4277 C   0  0  0  0  0  0  0  0  0  0  0  0
   -1.8565    0.4021    0.0800 C   0  0  0  0  0  0  0  0  0  0  0  0
   -3.1627    0.6930    0.1484 F   0  0  0  0  0  0  0  0  0  0  0  0
   -0.9508    1.3653   -0.3432 C   0  0  0  0  0  0  0  0  0  0  0  0
   -1.4018    2.5821   -0.6845 F   0  0  0  0  0  0  0  0  0  0  0  0
    0.4096    1.0617   -0.4150 C   0  0  0  0  0  0  0  0  0  0  0  0
    1.6150    2.4057   -1.0177 Br  0  0  0  0  0  0  0  0  0  0  0  0
    2.8793    0.2198   -0.2047 H   0  0  0  0  0  0  0  0  0  0  0  0
    2.5400   -1.3551    0.3406 H   0  0  0  0  0  0  0  0  0  0  0  0
   -2.1606   -1.6101    0.7402 H   0  0  0  0  0  0  0  0  0  0  0  0
  1  2  1  0
  2  3  2  0
  3  4  1  0
  3  5  1  0
  5  6  2  0
  6  7  1  0
  6  8  1  0
  8  9  1  0
  8 10  2  0
 10 11  1  0
 10  2  1  0
  1 12  1  0
  1 13  1  0
  5 14  1  0
M  END
