
     RDKit          3D

 19 19  0  0  0  0  0  0  0  0999 V2000
   -3.2997   -0.0875    0.0529 C   0  0  0  0  0  0  0  0  0  0  0  0
   -1.8391   -0.2583   -0.3208 C   0  0  0  0  0  0  0  0  0  0  0  0
   -1.0470    0.3342    0.7178 O   0  0  0  0  0  0  0  0  0  0  0  0
    0.2915    0.2139    0.4410 C   0  0  0  0  0  0  0  0  0  0  0  0
    1.0165   -0.8866    0.9228 C   0  0  0  0  0  0  0  0  0  0  0  0
    0.1980   -2.2527    1.9565 Br  0  0  0  0  0  0  0  0  0  0  0  0
    2.3839   -0.9944    0.6667 C   0  0  0  0  0  0  0  0  0  0  0  0
    3.0237    0.0098   -0.0490 C   0  0  0  0  0  0  0  0  0  0  0  0
    4.3365   -0.0927   -0.2925 F   0  0  0  0  0  0  0  0  0  0  0  0
    2.3324    1.1259   -0.5035 C   0  0  0  0  0  0  0  0  0  0  0  0
    0.9650    1.2342   -0.2477 C   0  0  0  0  0  0  0  0  0  0  0  0
    0.0751    2.8052   -0.8350 Br  0  0  0  0  0  0  0  0  0  0  0  0
   -3.5473    0.9734    0.1642 H   0  0  0  0  0  0  0  0  0  0  0  0
   -3.9510   -0.5240   -0.7095 H   0  0  0  0  0  0  0  0  0  0  0  0
   -3.5100   -0.5672    1.0145 H   0  0  0  0  0  0  0  0  0  0  0  0
   -1.6505    0.2337   -1.2818 H   0  0  0  0  0  0  0  0  0  0  0  0
   -1.6127   -1.3260   -0.4210 H   0  0  0  0  0  0  0  0  0  0  0  0
    2.9627   -1.8406    1.0238 H   0  0  0  0  0  0  0  0  0  0  0  0
    2.8719    1.8999   -1.0406 H   0  0  0  0  0  0  0  0  0  0  0  0
  1  2  1  0
  2  3  1  0
  3  4  1  0
  4  5  2  0
  5  6  1  0
  5  7  1  0
  7  8  2  0
  8  9  1  0
  8 10  1  0
 10 11  2  0
 11 12  1  0
 11  4  1  0
  1 13  1  0
  1 14  1  0
  1 15  1  0
  2 16  1  0
  2 17  1  0
  7 18  1  0
 10 19  1  0
M  END
