
     RDKit          3D

 16 16  0  0  0  0  0  0  0  0999 V2000
    3.1376    0.5119   -0.2721 O   0  0  0  0  0  0  0  0  0  0  0  0
    1.7883    0.3003   -0.1686 C   0  0  0  0  0  0  0  0  0  0  0  0
    1.2743   -0.6273    0.7418 C   0  0  0  0  0  0  0  0  0  0  0  0
    2.4289   -1.6240    1.8682 Br  0  0  0  0  0  0  0  0  0  0  0  0
   -0.1037   -0.8358    0.8396 C   0  0  0  0  0  0  0  0  0  0  0  0
   -0.9889   -0.1194    0.0182 C   0  0  0  0  0  0  0  0  0  0  0  0
   -2.4798   -0.3238    0.1365 C   0  0  0  0  0  0  0  0  0  0  0  0
   -3.1456   -0.0827   -1.0258 F   0  0  0  0  0  0  0  0  0  0  0  0
   -2.8131   -1.5925    0.5013 F   0  0  0  0  0  0  0  0  0  0  0  0
   -3.0378    0.4948    1.0686 F   0  0  0  0  0  0  0  0  0  0  0  0
   -0.4668    0.8179   -0.8883 C   0  0  0  0  0  0  0  0  0  0  0  0
    0.9135    1.0231   -0.9824 C   0  0  0  0  0  0  0  0  0  0  0  0
    1.5478    2.3000   -2.2333 Br  0  0  0  0  0  0  0  0  0  0  0  0
    3.5861   -0.0723    0.3657 H   0  0  0  0  0  0  0  0  0  0  0  0
   -0.4969   -1.5582    1.5544 H   0  0  0  0  0  0  0  0  0  0  0  0
   -1.1440    1.3881   -1.5239 H   0  0  0  0  0  0  0  0  0  0  0  0
  1  2  1  0
  2  3  2  0
  3  4  1  0
  3  5  1  0
  5  6  2  0
  6  7  1  0
  7  8  1  0
  7  9  1  0
  7 10  1  0
  6 11  1  0
 11 12  2  0
 12 13  1  0
 12  2  1  0
  1 14  1  0
  5 15  1  0
 11 16  1  0
M  END
