
     RDKit          3D

 68 70  0  0  0  0  0  0  0  0999 V2000
  -10.1457   -0.8869   -0.2208 C   0  0  0  0  0  0  0  0  0  0  0  0
   -9.1439    0.0395   -0.8915 C   0  0  0  0  0  0  0  0  0  0  0  0
   -7.7588   -0.0758   -0.2521 C   0  0  0  0  0  0  0  0  0  0  0  0
   -6.7555    0.8597   -0.9310 C   0  0  0  0  0  0  0  0  0  0  0  0
   -5.3234    0.6985   -0.4081 C   0  0  0  0  0  0  0  0  0  0  0  0
   -5.1727    1.0853    1.0645 C   0  0  0  0  0  0  0  0  0  0  0  0
   -3.7207    1.2706    1.5235 C   0  0  0  0  0  0  0  0  0  0  0  0
   -2.8896   -0.0123    1.5831 C   0  0  0  0  0  0  0  0  0  0  0  0
   -2.6281   -0.4999    0.2605 O   0  0  0  0  0  0  0  0  0  0  0  0
   -1.2694   -0.6999    0.0549 C   0  0  0  0  0  0  0  0  0  0  0  0
   -0.5729    0.2469   -0.7184 C   0  0  0  0  0  0  0  0  0  0  0  0
   -1.0323    1.4460   -1.3701 C   0  0  0  0  0  0  0  0  0  0  0  0
   -0.0261    2.0906   -2.0337 C   0  0  0  0  0  0  0  0  0  0  0  0
   -0.2782    3.7122   -3.0114 Br  0  0  0  0  0  0  0  0  0  0  0  0
    1.4586    1.3062   -1.9118 S   0  0  0  0  0  0  0  0  0  0  0  0
    0.7932    0.0478   -0.9261 C   0  0  0  0  0  0  0  0  0  0  0  0
    1.4509   -1.0616   -0.3732 C   0  0  0  0  0  0  0  0  0  0  0  0
    2.8106   -1.2253   -0.6070 O   0  0  0  0  0  0  0  0  0  0  0  0
    3.5983   -0.9596    0.5664 C   0  0  0  0  0  0  0  0  0  0  0  0
    4.0507    0.4999    0.5925 C   0  0  0  0  0  0  0  0  0  0  0  0
    5.0281    0.8158    1.7240 C   0  0  0  0  0  0  0  0  0  0  0  0
    6.4270    0.2012    1.5913 C   0  0  0  0  0  0  0  0  0  0  0  0
    7.2144    0.6992    0.3714 C   0  0  0  0  0  0  0  0  0  0  0  0
    7.2293   -0.3135   -0.7776 C   0  0  0  0  0  0  0  0  0  0  0  0
    7.8281    0.2463   -2.0698 C   0  0  0  0  0  0  0  0  0  0  0  0
    9.2857    0.6596   -1.9414 C   0  0  0  0  0  0  0  0  0  0  0  0
    0.7302   -2.0642    0.3103 C   0  0  0  0  0  0  0  0  0  0  0  0
    1.1582   -3.3323    0.8469 C   0  0  0  0  0  0  0  0  0  0  0  0
    0.1330   -4.0142    1.4407 C   0  0  0  0  0  0  0  0  0  0  0  0
    0.3417   -5.7300    2.2529 Br  0  0  0  0  0  0  0  0  0  0  0  0
   -1.3339   -3.1895    1.3850 S   0  0  0  0  0  0  0  0  0  0  0  0
   -0.6357   -1.8609    0.5238 C   0  0  0  0  0  0  0  0  0  0  0  0
  -10.2822   -0.6203    0.8335 H   0  0  0  0  0  0  0  0  0  0  0  0
   -9.8107   -1.9282   -0.2698 H   0  0  0  0  0  0  0  0  0  0  0  0
  -11.1177   -0.8186   -0.7177 H   0  0  0  0  0  0  0  0  0  0  0  0
   -9.5050    1.0731   -0.8177 H   0  0  0  0  0  0  0  0  0  0  0  0
   -9.0838   -0.2095   -1.9583 H   0  0  0  0  0  0  0  0  0  0  0  0
   -7.8350    0.1669    0.8139 H   0  0  0  0  0  0  0  0  0  0  0  0
   -7.4021   -1.1106   -0.3242 H   0  0  0  0  0  0  0  0  0  0  0  0
   -7.0767    1.9013   -0.8022 H   0  0  0  0  0  0  0  0  0  0  0  0
   -6.7497    0.6614   -2.0105 H   0  0  0  0  0  0  0  0  0  0  0  0
   -5.0055   -0.3388   -0.5606 H   0  0  0  0  0  0  0  0  0  0  0  0
   -4.6677    1.3304   -1.0191 H   0  0  0  0  0  0  0  0  0  0  0  0
   -5.6596    0.3359    1.6996 H   0  0  0  0  0  0  0  0  0  0  0  0
   -5.6973    2.0334    1.2373 H   0  0  0  0  0  0  0  0  0  0  0  0
   -3.2270    2.0018    0.8718 H   0  0  0  0  0  0  0  0  0  0  0  0
   -3.7437    1.7080    2.5297 H   0  0  0  0  0  0  0  0  0  0  0  0
   -3.4310   -0.7894    2.1339 H   0  0  0  0  0  0  0  0  0  0  0  0
   -1.9650    0.2044    2.1337 H   0  0  0  0  0  0  0  0  0  0  0  0
   -2.0579    1.7909   -1.3459 H   0  0  0  0  0  0  0  0  0  0  0  0
    3.0694   -1.2149    1.4931 H   0  0  0  0  0  0  0  0  0  0  0  0
    4.4649   -1.6253    0.5046 H   0  0  0  0  0  0  0  0  0  0  0  0
    4.4659    0.7874   -0.3801 H   0  0  0  0  0  0  0  0  0  0  0  0
    3.1659    1.1343    0.7273 H   0  0  0  0  0  0  0  0  0  0  0  0
    5.1333    1.9059    1.7943 H   0  0  0  0  0  0  0  0  0  0  0  0
    4.5910    0.4898    2.6762 H   0  0  0  0  0  0  0  0  0  0  0  0
    6.9863    0.4913    2.4908 H   0  0  0  0  0  0  0  0  0  0  0  0
    6.3745   -0.8932    1.6099 H   0  0  0  0  0  0  0  0  0  0  0  0
    8.2502    0.8769    0.6871 H   0  0  0  0  0  0  0  0  0  0  0  0
    6.8248    1.6643    0.0278 H   0  0  0  0  0  0  0  0  0  0  0  0
    6.2109   -0.6508   -0.9967 H   0  0  0  0  0  0  0  0  0  0  0  0
    7.7928   -1.2030   -0.4709 H   0  0  0  0  0  0  0  0  0  0  0  0
    7.2366    1.1028   -2.4118 H   0  0  0  0  0  0  0  0  0  0  0  0
    7.7484   -0.5217   -2.8484 H   0  0  0  0  0  0  0  0  0  0  0  0
    9.4013    1.5158   -1.2702 H   0  0  0  0  0  0  0  0  0  0  0  0
    9.8979   -0.1664   -1.5645 H   0  0  0  0  0  0  0  0  0  0  0  0
    9.6793    0.9523   -2.9205 H   0  0  0  0  0  0  0  0  0  0  0  0
    2.1731   -3.7062    0.7769 H   0  0  0  0  0  0  0  0  0  0  0  0
  1  2  1  0
  2  3  1  0
  3  4  1  0
  4  5  1  0
  5  6  1  0
  6  7  1  0
  7  8  1  0
  8  9  1  0
  9 10  1  0
 10 11  2  0
 11 12  1  0
 12 13  2  0
 13 14  1  0
 13 15  1  0
 15 16  1  0
 16 17  2  0
 17 18  1  0
 18 19  1  0
 19 20  1  0
 20 21  1  0
 21 22  1  0
 22 23  1  0
 23 24  1  0
 24 25  1  0
 25 26  1  0
 17 27  1  0
 27 28  1  0
 28 29  2  0
 29 30  1  0
 29 31  1  0
 31 32  1  0
 32 10  1  0
 16 11  1  0
 32 27  2  0
  1 33  1  0
  1 34  1  0
  1 35  1  0
  2 36  1  0
  2 37  1  0
  3 38  1  0
  3 39  1  0
  4 40  1  0
  4 41  1  0
  5 42  1  0
  5 43  1  0
  6 44  1  0
  6 45  1  0
  7 46  1  0
  7 47  1  0
  8 48  1  0
  8 49  1  0
 12 50  1  0
 19 51  1  0
 19 52  1  0
 20 53  1  0
 20 54  1  0
 21 55  1  0
 21 56  1  0
 22 57  1  0
 22 58  1  0
 23 59  1  0
 23 60  1  0
 24 61  1  0
 24 62  1  0
 25 63  1  0
 25 64  1  0
 26 65  1  0
 26 66  1  0
 26 67  1  0
 28 68  1  0
M  END
