
     RDKit          3D

 20 20  0  0  0  0  0  0  0  0999 V2000
   -3.8749   -0.1652   -0.0160 C   0  0  0  0  0  0  0  0  0  0  0  0
   -2.4040   -0.4466    0.0538 C   0  0  0  0  0  0  0  0  0  0  0  0
   -1.9131   -1.4518    0.5501 O   0  0  0  0  0  0  0  0  0  0  0  0
   -1.7148    0.6121   -0.5264 O   0  0  0  0  0  0  0  0  0  0  0  0
   -0.3321    0.4055   -0.5070 C   0  0  0  0  0  0  0  0  0  0  0  0
    0.2951   -0.2078   -1.5982 C   0  0  0  0  0  0  0  0  0  0  0  0
   -0.6861   -0.7800   -3.1167 Br  0  0  0  0  0  0  0  0  0  0  0  0
    1.6767   -0.4008   -1.5877 C   0  0  0  0  0  0  0  0  0  0  0  0
    2.4269    0.0315   -0.4887 C   0  0  0  0  0  0  0  0  0  0  0  0
    3.8895   -0.1695   -0.4685 C   0  0  0  0  0  0  0  0  0  0  0  0
    4.4829   -0.6867   -1.4059 O   0  0  0  0  0  0  0  0  0  0  0  0
    1.8104    0.6652    0.5942 C   0  0  0  0  0  0  0  0  0  0  0  0
    0.4275    0.8590    0.5789 C   0  0  0  0  0  0  0  0  0  0  0  0
   -0.3709    1.7565    2.0469 Br  0  0  0  0  0  0  0  0  0  0  0  0
   -4.4242   -0.9988    0.4307 H   0  0  0  0  0  0  0  0  0  0  0  0
   -4.1048    0.7444    0.5443 H   0  0  0  0  0  0  0  0  0  0  0  0
   -4.1837   -0.0644   -1.0594 H   0  0  0  0  0  0  0  0  0  0  0  0
    2.1745   -0.8838   -2.4269 H   0  0  0  0  0  0  0  0  0  0  0  0
    4.4254    0.1727    0.4328 H   0  0  0  0  0  0  0  0  0  0  0  0
    2.3996    1.0086    1.4410 H   0  0  0  0  0  0  0  0  0  0  0  0
  1  2  1  0
  2  3  2  0
  2  4  1  0
  4  5  1  0
  5  6  2  0
  6  7  1  0
  6  8  1  0
  8  9  2  0
  9 10  1  0
 10 11  2  0
  9 12  1  0
 12 13  2  0
 13 14  1  0
 13  5  1  0
  1 15  1  0
  1 16  1  0
  1 17  1  0
  8 18  1  0
 10 19  1  0
 12 20  1  0
M  END
