
     RDKit          3D

 24 26  0  0  0  0  0  0  0  0999 V2000
    5.3341   -1.4847    0.1262 Br  0  0  0  0  0  0  0  0  0  0  0  0
    3.6616   -0.6076    0.2185 C   0  0  0  0  0  0  0  0  0  0  0  0
    3.6005    0.7178    0.6363 C   0  0  0  0  0  0  0  0  0  0  0  0
    2.3645    1.3634    0.7037 C   0  0  0  0  0  0  0  0  0  0  0  0
    1.1821    0.6900    0.3545 C   0  0  0  0  0  0  0  0  0  0  0  0
   -0.0676    1.3277    0.4178 C   0  0  0  0  0  0  0  0  0  0  0  0
   -1.2509    0.6557    0.0689 C   0  0  0  0  0  0  0  0  0  0  0  0
   -2.5001    1.2947    0.1327 C   0  0  0  0  0  0  0  0  0  0  0  0
   -3.6616    0.6076   -0.2185 C   0  0  0  0  0  0  0  0  0  0  0  0
   -5.3341    1.4847   -0.1262 Br  0  0  0  0  0  0  0  0  0  0  0  0
   -3.6005   -0.7178   -0.6363 C   0  0  0  0  0  0  0  0  0  0  0  0
   -2.3645   -1.3634   -0.7037 C   0  0  0  0  0  0  0  0  0  0  0  0
   -1.1821   -0.6900   -0.3545 C   0  0  0  0  0  0  0  0  0  0  0  0
    0.0676   -1.3277   -0.4178 C   0  0  0  0  0  0  0  0  0  0  0  0
    1.2509   -0.6557   -0.0689 C   0  0  0  0  0  0  0  0  0  0  0  0
    2.5001   -1.2947   -0.1327 C   0  0  0  0  0  0  0  0  0  0  0  0
    4.5032    1.2568    0.9108 H   0  0  0  0  0  0  0  0  0  0  0  0
    2.3313    2.4002    1.0321 H   0  0  0  0  0  0  0  0  0  0  0  0
   -0.1203    2.3651    0.7442 H   0  0  0  0  0  0  0  0  0  0  0  0
   -2.5655    2.3306    0.4572 H   0  0  0  0  0  0  0  0  0  0  0  0
   -4.5033   -1.2568   -0.9108 H   0  0  0  0  0  0  0  0  0  0  0  0
   -2.3313   -2.4002   -1.0321 H   0  0  0  0  0  0  0  0  0  0  0  0
    0.1203   -2.3651   -0.7442 H   0  0  0  0  0  0  0  0  0  0  0  0
    2.5655   -2.3306   -0.4572 H   0  0  0  0  0  0  0  0  0  0  0  0
  1  2  1  0
  2  3  2  0
  3  4  1  0
  4  5  2  0
  5  6  1  0
  6  7  2  0
  7  8  1  0
  8  9  2  0
  9 10  1  0
  9 11  1  0
 11 12  2  0
 12 13  1  0
 13 14  2  0
 14 15  1  0
 15 16  2  0
 16  2  1  0
 15  5  1  0
 13  7  1  0
  3 17  1  0
  4 18  1  0
  6 19  1  0
  8 20  1  0
 11 21  1  0
 12 22  1  0
 14 23  1  0
 16 24  1  0
M  END
