
     RDKit          3D

 17 17  0  0  0  0  0  0  0  0999 V2000
    2.1474   -1.5408   -0.1414 C   0  0  0  0  0  0  0  0  0  0  0  0
    1.0965   -0.4726   -0.0634 C   0  0  0  0  0  0  0  0  0  0  0  0
   -0.1887   -0.9152   -0.0169 N   0  0  0  0  0  0  0  0  0  0  0  0
   -1.1945   -0.0025    0.0547 C   0  0  0  0  0  0  0  0  0  0  0  0
   -2.5826   -0.5702    0.1024 C   0  0  0  0  0  0  0  0  0  0  0  0
   -0.9457    1.3690    0.0816 C   0  0  0  0  0  0  0  0  0  0  0  0
   -2.3263    2.6625    0.1810 Br  0  0  0  0  0  0  0  0  0  0  0  0
    0.3739    1.8139    0.0335 C   0  0  0  0  0  0  0  0  0  0  0  0
    1.4105    0.8855   -0.0399 C   0  0  0  0  0  0  0  0  0  0  0  0
    3.1906    1.5304   -0.1035 Br  0  0  0  0  0  0  0  0  0  0  0  0
    2.7313   -1.4398   -1.0615 H   0  0  0  0  0  0  0  0  0  0  0  0
    2.8132   -1.4897    0.7256 H   0  0  0  0  0  0  0  0  0  0  0  0
    1.6883   -2.5353   -0.1482 H   0  0  0  0  0  0  0  0  0  0  0  0
   -3.1676   -0.2294   -0.7574 H   0  0  0  0  0  0  0  0  0  0  0  0
   -2.5541   -1.6647    0.0706 H   0  0  0  0  0  0  0  0  0  0  0  0
   -3.0857   -0.2793    1.0297 H   0  0  0  0  0  0  0  0  0  0  0  0
    0.5933    2.8781    0.0532 H   0  0  0  0  0  0  0  0  0  0  0  0
  1  2  1  0
  2  3  2  0
  3  4  1  0
  4  5  1  0
  4  6  2  0
  6  7  1  0
  6  8  1  0
  8  9  2  0
  9 10  1  0
  9  2  1  0
  1 11  1  0
  1 12  1  0
  1 13  1  0
  5 14  1  0
  5 15  1  0
  5 16  1  0
  8 17  1  0
M  END
