
     RDKit          3D

 16 16  0  0  0  0  0  0  0  0999 V2000
   -1.7744   -0.8888    0.2911 C   0  0  0  0  0  0  0  0  0  0  0  0
   -0.3551   -0.4588    0.0435 C   0  0  0  0  0  0  0  0  0  0  0  0
    0.6257   -1.4365   -0.1761 C   0  0  0  0  0  0  0  0  0  0  0  0
    1.9424   -1.0436   -0.3664 C   0  0  0  0  0  0  0  0  0  0  0  0
    3.2584   -2.3768   -0.6642 Br  0  0  0  0  0  0  0  0  0  0  0  0
    2.3489    0.2371   -0.3428 N   0  0  0  0  0  0  0  0  0  0  0  0
    1.3931    1.1694   -0.1269 C   0  0  0  0  0  0  0  0  0  0  0  0
    2.0056    2.9775   -0.0735 Br  0  0  0  0  0  0  0  0  0  0  0  0
    0.0175    0.8960    0.0231 C   0  0  0  0  0  0  0  0  0  0  0  0
   -0.9179    1.8957    0.3568 N   0  0  0  0  0  0  0  0  0  0  0  0
   -1.8660   -1.9800    0.3174 H   0  0  0  0  0  0  0  0  0  0  0  0
   -2.1263   -0.5080    1.2553 H   0  0  0  0  0  0  0  0  0  0  0  0
   -2.4262   -0.5211   -0.5079 H   0  0  0  0  0  0  0  0  0  0  0  0
    0.3643   -2.4904   -0.1851 H   0  0  0  0  0  0  0  0  0  0  0  0
   -1.8715    1.6982    0.0728 H   0  0  0  0  0  0  0  0  0  0  0  0
   -0.6186    2.8300    0.0830 H   0  0  0  0  0  0  0  0  0  0  0  0
  1  2  1  0
  2  3  2  0
  3  4  1  0
  4  5  1  0
  4  6  2  0
  6  7  1  0
  7  8  1  0
  7  9  2  0
  9 10  1  0
  9  2  1  0
  1 11  1  0
  1 12  1  0
  1 13  1  0
  3 14  1  0
 10 15  1  0
 10 16  1  0
M  END
