
     RDKit          3D

 12 12  0  0  0  0  0  0  0  0999 V2000
    0.3246    2.6004   -0.1368 O   0  0  0  0  0  1  0  0  0  0  0  0
    0.1666    1.3346   -0.0702 N   0  0  0  0  0  4  0  0  0  0  0  0
    1.2698    0.4759    0.0229 C   0  0  0  0  0  0  0  0  0  0  0  0
    3.0549    1.1399    0.0554 Br  0  0  0  0  0  0  0  0  0  0  0  0
    1.0953   -0.9138    0.0960 C   0  0  0  0  0  0  0  0  0  0  0  0
   -0.1822   -1.4595    0.0768 C   0  0  0  0  0  0  0  0  0  0  0  0
   -1.2870   -0.6223   -0.0152 C   0  0  0  0  0  0  0  0  0  0  0  0
   -1.1146    0.7677   -0.0884 C   0  0  0  0  0  0  0  0  0  0  0  0
   -2.6827    1.8420   -0.2123 Br  0  0  0  0  0  0  0  0  0  0  0  0
    1.9581   -1.5729    0.1681 H   0  0  0  0  0  0  0  0  0  0  0  0
   -0.3168   -2.5383    0.1335 H   0  0  0  0  0  0  0  0  0  0  0  0
   -2.2859   -1.0536   -0.0299 H   0  0  0  0  0  0  0  0  0  0  0  0
  1  2  1  0
  2  3  2  0
  3  4  1  0
  3  5  1  0
  5  6  2  0
  6  7  1  0
  7  8  2  0
  8  9  1  0
  8  2  1  0
  5 10  1  0
  6 11  1  0
  7 12  1  0
M  CHG  2   1  -1   2   1
M  END
