
     RDKit          3D

 13 13  0  0  0  0  0  0  0  0999 V2000
    1.9414    1.4867   -0.2705 O   0  0  0  0  0  0  0  0  0  0  0  0
    0.8750    0.6362   -0.1376 C   0  0  0  0  0  0  0  0  0  0  0  0
    0.9172   -0.6228   -0.7420 C   0  0  0  0  0  0  0  0  0  0  0  0
    2.4209   -1.1915   -1.7488 Br  0  0  0  0  0  0  0  0  0  0  0  0
   -0.1644   -1.4990   -0.6135 C   0  0  0  0  0  0  0  0  0  0  0  0
   -1.2902   -1.1185    0.1193 C   0  0  0  0  0  0  0  0  0  0  0  0
   -1.3371    0.1377    0.7247 C   0  0  0  0  0  0  0  0  0  0  0  0
   -0.2558    1.0116    0.5953 C   0  0  0  0  0  0  0  0  0  0  0  0
   -0.3515    2.7115    1.4304 Br  0  0  0  0  0  0  0  0  0  0  0  0
    1.7317    2.3060    0.2128 H   0  0  0  0  0  0  0  0  0  0  0  0
   -0.1383   -2.4804   -1.0812 H   0  0  0  0  0  0  0  0  0  0  0  0
   -2.1304   -1.8021    0.2177 H   0  0  0  0  0  0  0  0  0  0  0  0
   -2.2185    0.4244    1.2932 H   0  0  0  0  0  0  0  0  0  0  0  0
  1  2  1  0
  2  3  2  0
  3  4  1  0
  3  5  1  0
  5  6  2  0
  6  7  1  0
  7  8  2  0
  8  9  1  0
  8  2  1  0
  1 10  1  0
  5 11  1  0
  6 12  1  0
  7 13  1  0
M  END
