
     RDKit          3D

 17 17  0  0  0  0  0  0  0  0999 V2000
   -1.2092    1.9083   -2.0076 N   0  0  0  0  0  0  0  0  0  0  0  0
   -0.6748    1.0674   -1.0104 C   0  0  0  0  0  0  0  0  0  0  0  0
    0.6611    1.2018   -0.5910 C   0  0  0  0  0  0  0  0  0  0  0  0
    1.7363    2.6492   -1.1991 Br  0  0  0  0  0  0  0  0  0  0  0  0
    1.2415    0.2919    0.3010 C   0  0  0  0  0  0  0  0  0  0  0  0
    0.5071   -0.8016    0.7796 C   0  0  0  0  0  0  0  0  0  0  0  0
    1.1372   -1.7984    1.7203 C   0  0  0  0  0  0  0  0  0  0  0  0
    1.7566   -2.8121    1.0579 F   0  0  0  0  0  0  0  0  0  0  0  0
    2.0819   -1.2430    2.5284 F   0  0  0  0  0  0  0  0  0  0  0  0
    0.2352   -2.3874    2.5529 F   0  0  0  0  0  0  0  0  0  0  0  0
   -0.8080   -0.9780    0.3284 C   0  0  0  0  0  0  0  0  0  0  0  0
   -1.3816   -0.0639   -0.5637 C   0  0  0  0  0  0  0  0  0  0  0  0
   -3.1677   -0.3892   -1.1336 Br  0  0  0  0  0  0  0  0  0  0  0  0
   -0.7803    2.8299   -2.0366 H   0  0  0  0  0  0  0  0  0  0  0  0
   -2.2257    1.9344   -2.0173 H   0  0  0  0  0  0  0  0  0  0  0  0
    2.2741    0.4286    0.6210 H   0  0  0  0  0  0  0  0  0  0  0  0
   -1.3838   -1.8378    0.6698 H   0  0  0  0  0  0  0  0  0  0  0  0
  1  2  1  0
  2  3  2  0
  3  4  1  0
  3  5  1  0
  5  6  2  0
  6  7  1  0
  7  8  1  0
  7  9  1  0
  7 10  1  0
  6 11  1  0
 11 12  2  0
 12 13  1  0
 12  2  1  0
  1 14  1  0
  1 15  1  0
  5 16  1  0
 11 17  1  0
M  END
