
     RDKit          3D

 13 13  0  0  0  0  0  0  0  0999 V2000
    2.4144    0.4630   -0.0929 O   0  0  0  0  0  0  0  0  0  0  0  0
    1.0637    0.2355   -0.0503 C   0  0  0  0  0  0  0  0  0  0  0  0
    0.1796    1.2681   -0.3734 C   0  0  0  0  0  0  0  0  0  0  0  0
    0.8020    2.9888   -0.8731 Br  0  0  0  0  0  0  0  0  0  0  0  0
   -1.2003    1.0480   -0.3336 C   0  0  0  0  0  0  0  0  0  0  0  0
   -1.6992   -0.2044    0.0293 C   0  0  0  0  0  0  0  0  0  0  0  0
   -0.8204   -1.2388    0.3528 C   0  0  0  0  0  0  0  0  0  0  0  0
    0.5576   -1.0172    0.3125 C   0  0  0  0  0  0  0  0  0  0  0  0
    1.7247   -2.4440    0.7580 Br  0  0  0  0  0  0  0  0  0  0  0  0
    2.8643   -0.3628    0.1608 H   0  0  0  0  0  0  0  0  0  0  0  0
   -1.8941    1.8472   -0.5838 H   0  0  0  0  0  0  0  0  0  0  0  0
   -2.7732   -0.3730    0.0595 H   0  0  0  0  0  0  0  0  0  0  0  0
   -1.2191   -2.2104    0.6341 H   0  0  0  0  0  0  0  0  0  0  0  0
  1  2  1  0
  2  3  2  0
  3  4  1  0
  3  5  1  0
  5  6  2  0
  6  7  1  0
  7  8  2  0
  8  9  1  0
  8  2  1  0
  1 10  1  0
  5 11  1  0
  6 12  1  0
  7 13  1  0
M  END
