
     RDKit          3D

 12 12  0  0  0  0  0  0  0  0999 V2000
    0.2732    2.6307   -0.2339 F   0  0  0  0  0  0  0  0  0  0  0  0
    0.1350    1.3002   -0.1157 C   0  0  0  0  0  0  0  0  0  0  0  0
   -1.1368    0.7337   -0.0483 C   0  0  0  0  0  0  0  0  0  0  0  0
   -2.6810    1.8243   -0.1223 Br  0  0  0  0  0  0  0  0  0  0  0  0
   -1.2840   -0.6496    0.0748 C   0  0  0  0  0  0  0  0  0  0  0  0
   -0.1523   -1.4660    0.1304 C   0  0  0  0  0  0  0  0  0  0  0  0
    1.1230   -0.9006    0.0631 C   0  0  0  0  0  0  0  0  0  0  0  0
    1.2632    0.4834   -0.0600 C   0  0  0  0  0  0  0  0  0  0  0  0
    2.9984    1.2321   -0.1496 Br  0  0  0  0  0  0  0  0  0  0  0  0
   -2.2728   -1.0994    0.1280 H   0  0  0  0  0  0  0  0  0  0  0  0
   -0.2642   -2.5440    0.2263 H   0  0  0  0  0  0  0  0  0  0  0  0
    1.9981   -1.5448    0.1072 H   0  0  0  0  0  0  0  0  0  0  0  0
  1  2  1  0
  2  3  2  0
  3  4  1  0
  3  5  1  0
  5  6  2  0
  6  7  1  0
  7  8  2  0
  8  9  1  0
  8  2  1  0
  5 10  1  0
  6 11  1  0
  7 12  1  0
M  END
