
     RDKit          3D

 11 11  0  0  0  0  0  0  0  0999 V2000
   -2.2025    0.5645    1.3222 F   0  0  0  0  0  0  0  0  0  0  0  0
   -1.1083    0.2219    0.6282 C   0  0  0  0  0  0  0  0  0  0  0  0
   -0.0065    1.0660    0.6393 C   0  0  0  0  0  0  0  0  0  0  0  0
    1.1278    0.7047   -0.0838 C   0  0  0  0  0  0  0  0  0  0  0  0
    1.1083   -0.4926   -0.7898 C   0  0  0  0  0  0  0  0  0  0  0  0
    2.6476   -0.9932   -1.7772 Br  0  0  0  0  0  0  0  0  0  0  0  0
    0.0488   -1.3300   -0.8158 N   0  0  0  0  0  0  0  0  0  0  0  0
   -1.0419   -0.9562   -0.1048 C   0  0  0  0  0  0  0  0  0  0  0  0
   -2.5373   -2.1239   -0.1330 Br  0  0  0  0  0  0  0  0  0  0  0  0
   -0.0381    1.9912    1.2057 H   0  0  0  0  0  0  0  0  0  0  0  0
    2.0021    1.3476   -0.0911 H   0  0  0  0  0  0  0  0  0  0  0  0
  1  2  1  0
  2  3  2  0
  3  4  1  0
  4  5  2  0
  5  6  1  0
  5  7  1  0
  7  8  2  0
  8  9  1  0
  8  2  1  0
  3 10  1  0
  4 11  1  0
M  END
