
     RDKit          3D

 17 17  0  0  0  0  0  0  0  0999 V2000
   -2.7364   -0.2062   -0.0608 C   0  0  0  0  0  0  0  0  0  0  0  0
   -1.2370   -0.0764   -0.0295 C   0  0  0  0  0  0  0  0  0  0  0  0
   -0.4548   -1.1491   -0.4795 C   0  0  0  0  0  0  0  0  0  0  0  0
    0.9402   -1.0685   -0.4685 C   0  0  0  0  0  0  0  0  0  0  0  0
    1.9164   -2.5694   -1.1141 Br  0  0  0  0  0  0  0  0  0  0  0  0
    1.6028    0.0700    0.0222 C   0  0  0  0  0  0  0  0  0  0  0  0
    3.0061    0.1854   -0.0970 N   0  0  0  0  0  0  0  0  0  0  0  0
    0.8144    1.1686    0.4320 C   0  0  0  0  0  0  0  0  0  0  0  0
    1.7114    2.7539    1.0313 Br  0  0  0  0  0  0  0  0  0  0  0  0
   -0.5940    1.0920    0.4232 C   0  0  0  0  0  0  0  0  0  0  0  0
   -1.5674    2.4284    0.9608 Cl  0  0  0  0  0  0  0  0  0  0  0  0
   -3.1707    0.5420   -0.7316 H   0  0  0  0  0  0  0  0  0  0  0  0
   -3.0467   -1.1915   -0.4254 H   0  0  0  0  0  0  0  0  0  0  0  0
   -3.1523   -0.0875    0.9449 H   0  0  0  0  0  0  0  0  0  0  0  0
   -0.9369   -2.0526   -0.8493 H   0  0  0  0  0  0  0  0  0  0  0  0
    3.4142    0.8697    0.5355 H   0  0  0  0  0  0  0  0  0  0  0  0
    3.4907   -0.7089   -0.0942 H   0  0  0  0  0  0  0  0  0  0  0  0
  1  2  1  0
  2  3  2  0
  3  4  1  0
  4  5  1  0
  4  6  2  0
  6  7  1  0
  6  8  1  0
  8  9  1  0
  8 10  2  0
 10 11  1  0
 10  2  1  0
  1 12  1  0
  1 13  1  0
  1 14  1  0
  3 15  1  0
  7 16  1  0
  7 17  1  0
M  END
