
     RDKit          3D

 13 13  0  0  0  0  0  0  0  0999 V2000
   -2.5473   -1.0995   -1.0454 O   0  0  0  0  0  0  0  0  0  0  0  0
   -2.1611   -0.4576   -0.0610 N   0  0  0  0  0  4  0  0  0  0  0  0
   -2.8459   -0.1450    0.9200 O   0  0  0  0  0  1  0  0  0  0  0  0
   -0.7746   -0.0902   -0.0334 C   0  0  0  0  0  0  0  0  0  0  0  0
    0.1776   -1.0837    0.2043 C   0  0  0  0  0  0  0  0  0  0  0  0
    1.5203   -0.7171    0.2336 C   0  0  0  0  0  0  0  0  0  0  0  0
    1.8449    0.6174    0.0222 C   0  0  0  0  0  0  0  0  0  0  0  0
    3.6690    1.1305    0.0601 Br  0  0  0  0  0  0  0  0  0  0  0  0
    0.9269    1.5824   -0.2150 N   0  0  0  0  0  0  0  0  0  0  0  0
   -0.3800    1.2194   -0.2417 C   0  0  0  0  0  0  0  0  0  0  0  0
   -1.6064    2.6227   -0.6241 Br  0  0  0  0  0  0  0  0  0  0  0  0
   -0.1139   -2.1192    0.3634 H   0  0  0  0  0  0  0  0  0  0  0  0
    2.2905   -1.4601    0.4170 H   0  0  0  0  0  0  0  0  0  0  0  0
  1  2  2  0
  2  3  1  0
  2  4  1  0
  4  5  2  0
  5  6  1  0
  6  7  2  0
  7  8  1  0
  7  9  1  0
  9 10  2  0
 10 11  1  0
 10  4  1  0
  5 12  1  0
  6 13  1  0
M  CHG  2   2   1   3  -1
M  END
