
     RDKit          3D

 20 20  0  0  0  0  0  0  0  0999 V2000
    2.8210    0.8496    0.1377 C   0  0  0  0  0  0  0  0  0  0  0  0
    2.1127    0.3316   -1.1016 C   0  0  0  0  0  0  0  0  0  0  0  0
    1.4287   -0.8874   -0.8183 O   0  0  0  0  0  0  0  0  0  0  0  0
    0.1252   -0.8566   -0.4088 C   0  0  0  0  0  0  0  0  0  0  0  0
   -0.5821    0.2981   -0.0655 C   0  0  0  0  0  0  0  0  0  0  0  0
   -1.9243    0.2273    0.3266 C   0  0  0  0  0  0  0  0  0  0  0  0
   -2.5630    1.3958    0.7807 N   0  0  0  0  0  0  0  0  0  0  0  0
   -2.4791   -1.0567    0.4473 C   0  0  0  0  0  0  0  0  0  0  0  0
   -4.2711   -1.2571    1.0667 Br  0  0  0  0  0  0  0  0  0  0  0  0
   -1.8344   -2.1976    0.1246 N   0  0  0  0  0  0  0  0  0  0  0  0
   -0.5539   -2.0756   -0.2956 C   0  0  0  0  0  0  0  0  0  0  0  0
    0.3194   -3.7131   -0.7381 Br  0  0  0  0  0  0  0  0  0  0  0  0
    3.4007    1.7473   -0.0953 H   0  0  0  0  0  0  0  0  0  0  0  0
    2.1108    1.0902    0.9343 H   0  0  0  0  0  0  0  0  0  0  0  0
    3.4984    0.0877    0.5377 H   0  0  0  0  0  0  0  0  0  0  0  0
    1.4614    1.0847   -1.5584 H   0  0  0  0  0  0  0  0  0  0  0  0
    2.8697    0.0928   -1.8573 H   0  0  0  0  0  0  0  0  0  0  0  0
   -0.1060    1.2721   -0.0785 H   0  0  0  0  0  0  0  0  0  0  0  0
   -3.5780    1.3139    0.8133 H   0  0  0  0  0  0  0  0  0  0  0  0
   -2.2560    2.2530    0.3317 H   0  0  0  0  0  0  0  0  0  0  0  0
  1  2  1  0
  2  3  1  0
  3  4  1  0
  4  5  2  0
  5  6  1  0
  6  7  1  0
  6  8  2  0
  8  9  1  0
  8 10  1  0
 10 11  2  0
 11 12  1  0
 11  4  1  0
  1 13  1  0
  1 14  1  0
  1 15  1  0
  2 16  1  0
  2 17  1  0
  5 18  1  0
  7 19  1  0
  7 20  1  0
M  END
