
     RDKit          3D

 16 16  0  0  0  0  0  0  0  0999 V2000
   -2.3603   -0.9015    0.6407 C   0  0  0  0  0  0  0  0  0  0  0  0
   -1.8910   -0.0529   -0.4099 O   0  0  0  0  0  0  0  0  0  0  0  0
   -0.5345    0.1307   -0.3167 C   0  0  0  0  0  0  0  0  0  0  0  0
   -0.0157    1.2209    0.3963 C   0  0  0  0  0  0  0  0  0  0  0  0
   -1.1424    2.4769    1.2679 Br  0  0  0  0  0  0  0  0  0  0  0  0
    1.3643    1.4259    0.4674 C   0  0  0  0  0  0  0  0  0  0  0  0
    2.2244    0.5532   -0.1949 C   0  0  0  0  0  0  0  0  0  0  0  0
    3.9244    0.8054   -0.1087 Cl  0  0  0  0  0  0  0  0  0  0  0  0
    1.7232   -0.5128   -0.9383 C   0  0  0  0  0  0  0  0  0  0  0  0
    0.3430   -0.7164   -1.0084 C   0  0  0  0  0  0  0  0  0  0  0  0
   -0.2861   -2.1484   -2.0857 Br  0  0  0  0  0  0  0  0  0  0  0  0
   -2.1740   -0.4625    1.6262 H   0  0  0  0  0  0  0  0  0  0  0  0
   -1.9084   -1.8972    0.5859 H   0  0  0  0  0  0  0  0  0  0  0  0
   -3.4418   -1.0141    0.5198 H   0  0  0  0  0  0  0  0  0  0  0  0
    1.7690    2.2661    1.0261 H   0  0  0  0  0  0  0  0  0  0  0  0
    2.4057   -1.1731   -1.4676 H   0  0  0  0  0  0  0  0  0  0  0  0
  1  2  1  0
  2  3  1  0
  3  4  2  0
  4  5  1  0
  4  6  1  0
  6  7  2  0
  7  8  1  0
  7  9  1  0
  9 10  2  0
 10 11  1  0
 10  3  1  0
  1 12  1  0
  1 13  1  0
  1 14  1  0
  6 15  1  0
  9 16  1  0
M  END
