
     RDKit          3D

 10 10  0  0  0  0  0  0  0  0999 V2000
    2.8822   -1.3769   -0.0795 Br  0  0  0  0  0  0  0  0  0  0  0  0
    1.1802   -0.5508   -0.0316 C   0  0  0  0  0  0  0  0  0  0  0  0
    1.0934    0.8329    0.0576 C   0  0  0  0  0  0  0  0  0  0  0  0
   -0.0929    1.4891    0.0961 N   0  0  0  0  0  0  0  0  0  0  0  0
   -1.1886    0.6916    0.0408 C   0  0  0  0  0  0  0  0  0  0  0  0
   -1.1027   -0.6921   -0.0484 C   0  0  0  0  0  0  0  0  0  0  0  0
   -2.6889   -1.7218   -0.1206 Br  0  0  0  0  0  0  0  0  0  0  0  0
    0.0836   -1.3405   -0.0863 N   0  0  0  0  0  0  0  0  0  0  0  0
    1.9761    1.4617    0.1011 H   0  0  0  0  0  0  0  0  0  0  0  0
   -2.1426    1.2067    0.0709 H   0  0  0  0  0  0  0  0  0  0  0  0
  1  2  1  0
  2  3  2  0
  3  4  1  0
  4  5  2  0
  5  6  1  0
  6  7  1  0
  6  8  2  0
  8  2  1  0
  3  9  1  0
  5 10  1  0
M  END
