
     RDKit          3D

 16 16  0  0  0  0  0  0  0  0999 V2000
   -2.4994    0.6180    0.2274 C   0  0  0  0  0  0  0  0  0  0  0  0
   -1.3501    0.8684    1.0403 O   0  0  0  0  0  0  0  0  0  0  0  0
   -0.2265    0.3204    0.4744 C   0  0  0  0  0  0  0  0  0  0  0  0
    0.5782    1.0859   -0.3835 C   0  0  0  0  0  0  0  0  0  0  0  0
    0.1591    2.8875   -0.8116 Br  0  0  0  0  0  0  0  0  0  0  0  0
    1.7369    0.5386   -0.9358 C   0  0  0  0  0  0  0  0  0  0  0  0
    2.0980   -0.7625   -0.6092 C   0  0  0  0  0  0  0  0  0  0  0  0
    3.2113   -1.2866   -1.1375 F   0  0  0  0  0  0  0  0  0  0  0  0
    1.3359   -1.5253    0.2667 C   0  0  0  0  0  0  0  0  0  0  0  0
    0.1771   -0.9786    0.8193 C   0  0  0  0  0  0  0  0  0  0  0  0
   -0.7976   -2.0374    2.0578 Br  0  0  0  0  0  0  0  0  0  0  0  0
   -2.3981    1.0724   -0.7636 H   0  0  0  0  0  0  0  0  0  0  0  0
   -3.3625    1.0738    0.7216 H   0  0  0  0  0  0  0  0  0  0  0  0
   -2.6949   -0.4545    0.1264 H   0  0  0  0  0  0  0  0  0  0  0  0
    2.3700    1.1105   -1.6072 H   0  0  0  0  0  0  0  0  0  0  0  0
    1.6626   -2.5307    0.5143 H   0  0  0  0  0  0  0  0  0  0  0  0
  1  2  1  0
  2  3  1  0
  3  4  2  0
  4  5  1  0
  4  6  1  0
  6  7  2  0
  7  8  1  0
  7  9  1  0
  9 10  2  0
 10 11  1  0
 10  3  1  0
  1 12  1  0
  1 13  1  0
  1 14  1  0
  6 15  1  0
  9 16  1  0
M  END
