
     RDKit          3D

 14 15  0  0  0  0  0  0  0  0999 V2000
   -3.8362   -0.4750    0.0155 Br  0  0  0  0  0  0  0  0  0  0  0  0
   -1.9807   -0.1139    0.1109 C   0  0  0  0  0  0  0  0  0  0  0  0
   -1.5469    1.2011    0.2448 C   0  0  0  0  0  0  0  0  0  0  0  0
   -0.1786    1.4849    0.3168 C   0  0  0  0  0  0  0  0  0  0  0  0
    0.7604    0.4351    0.2534 C   0  0  0  0  0  0  0  0  0  0  0  0
    2.1357    0.5740    0.3124 N   0  0  0  0  0  0  0  0  0  0  0  0
    2.6910   -0.6097    0.2239 C   0  0  0  0  0  0  0  0  0  0  0  0
    4.5983   -0.8211    0.2692 Br  0  0  0  0  0  0  0  0  0  0  0  0
    1.6459   -1.9456    0.0674 S   0  0  0  0  0  0  0  0  0  0  0  0
    0.2941   -0.8765    0.1187 C   0  0  0  0  0  0  0  0  0  0  0  0
   -1.0764   -1.1773    0.0451 C   0  0  0  0  0  0  0  0  0  0  0  0
   -2.2615    2.0193    0.2949 H   0  0  0  0  0  0  0  0  0  0  0  0
    0.1694    2.5084    0.4214 H   0  0  0  0  0  0  0  0  0  0  0  0
   -1.4145   -2.2036   -0.0594 H   0  0  0  0  0  0  0  0  0  0  0  0
  1  2  1  0
  2  3  2  0
  3  4  1  0
  4  5  2  0
  5  6  1  0
  6  7  2  0
  7  8  1  0
  7  9  1  0
  9 10  1  0
 10 11  2  0
 11  2  1  0
 10  5  1  0
  3 12  1  0
  4 13  1  0
 11 14  1  0
M  END
