
     RDKit          3D

 16 15  0  0  0  0  0  0  0  0999 V2000
    0.7662    0.0000    0.0000 Br  0  0  0  0  0  0  0  0  0  0  0  0
    2.1529   -1.7228    0.0611 O   0  0  0  0  0  0  0  0  0  0  0  0
    1.7826   -0.5211   -0.0044 C   0  0  0  0  0  0  0  0  0  0  0  0
    2.7771    0.4452   -0.0862 O   0  0  0  0  0  0  0  0  0  0  0  0
    0.3642   -0.1838    0.0067 C   0  0  0  0  0  0  0  0  0  0  0  0
   -0.5404   -1.2224    0.0909 C   0  0  0  0  0  0  0  0  0  0  0  0
   -1.8840   -0.8385    0.0976 C   0  0  0  0  0  0  0  0  0  0  0  0
   -3.2122   -2.2128    0.2118 Br  0  0  0  0  0  0  0  0  0  0  0  0
   -2.2670    0.4561    0.0268 N   0  0  0  0  0  0  0  0  0  0  0  0
   -1.3741    1.4586   -0.0549 C   0  0  0  0  0  0  0  0  0  0  0  0
   -1.9226    3.2811   -0.1543 Br  0  0  0  0  0  0  0  0  0  0  0  0
   -0.0181    1.1401   -0.0659 C   0  0  0  0  0  0  0  0  0  0  0  0
   -0.7662    0.0000    0.0000 H   0  0  0  0  0  0  0  0  0  0  0  0
    3.6986    0.2381   -0.4986 H   0  0  0  0  0  0  0  0  0  0  0  0
   -0.2696   -2.2677    0.1490 H   0  0  0  0  0  0  0  0  0  0  0  0
    0.7125    1.9497   -0.1321 H   0  0  0  0  0  0  0  0  0  0  0  0
  2  3  2  0
  3  4  1  0
  3  5  1  0
  5  6  2  0
  6  7  1  0
  7  8  1  0
  7  9  2  0
  9 10  1  0
 10 11  1  0
 10 12  2  0
 12  5  1  0
  1 13  1  0
  4 14  1  0
  6 15  1  0
 12 16  1  0
M  END
