
     RDKit          3D

 12 12  0  0  0  0  0  0  0  0999 V2000
   -0.4959   -2.2599   -0.3019 O   0  0  0  0  0  0  0  0  0  0  0  0
   -0.1880   -0.9425   -0.1313 C   0  0  0  0  0  0  0  0  0  0  0  0
   -1.1270   -0.0287    0.3195 C   0  0  0  0  0  0  0  0  0  0  0  0
   -0.7161    1.2876    0.4601 C   0  0  0  0  0  0  0  0  0  0  0  0
   -1.9708    2.5713    1.0748 Br  0  0  0  0  0  0  0  0  0  0  0  0
    0.5319    1.7196    0.1851 N   0  0  0  0  0  0  0  0  0  0  0  0
    1.4151    0.7970   -0.2513 C   0  0  0  0  0  0  0  0  0  0  0  0
    3.1750    1.3852   -0.6433 Br  0  0  0  0  0  0  0  0  0  0  0  0
    1.1049   -0.5402   -0.4251 C   0  0  0  0  0  0  0  0  0  0  0  0
   -1.4262   -2.4128   -0.0636 H   0  0  0  0  0  0  0  0  0  0  0  0
   -2.1424   -0.3219    0.5547 H   0  0  0  0  0  0  0  0  0  0  0  0
    1.8394   -1.2548   -0.7777 H   0  0  0  0  0  0  0  0  0  0  0  0
  1  2  1  0
  2  3  2  0
  3  4  1  0
  4  5  1  0
  4  6  2  0
  6  7  1  0
  7  8  1  0
  7  9  2  0
  9  2  1  0
  1 10  1  0
  3 11  1  0
  9 12  1  0
M  END
