
     RDKit          3D

 15 15  0  0  0  0  0  0  0  0999 V2000
   -2.6271   -0.5587   -1.1552 O   0  0  0  0  0  0  0  0  0  0  0  0
   -1.7054   -0.8456   -0.0335 B   0  0  0  0  0  0  0  0  0  0  0  0
   -2.3942   -1.0007    1.2668 O   0  0  0  0  0  0  0  0  0  0  0  0
   -0.2457   -0.2490   -0.0039 C   0  0  0  0  0  0  0  0  0  0  0  0
   -0.0430    1.1121   -0.1534 C   0  0  0  0  0  0  0  0  0  0  0  0
    1.2646    1.5622   -0.1168 C   0  0  0  0  0  0  0  0  0  0  0  0
    1.5304    3.4427   -0.3244 Br  0  0  0  0  0  0  0  0  0  0  0  0
    2.3401    0.7909    0.0505 N   0  0  0  0  0  0  0  0  0  0  0  0
    2.1522   -0.5324    0.1965 C   0  0  0  0  0  0  0  0  0  0  0  0
    3.6336   -1.7109    0.4409 Br  0  0  0  0  0  0  0  0  0  0  0  0
    0.8694   -1.0433    0.1689 C   0  0  0  0  0  0  0  0  0  0  0  0
   -2.1707   -0.5498   -2.0172 H   0  0  0  0  0  0  0  0  0  0  0  0
   -2.5033   -0.0860    1.6814 H   0  0  0  0  0  0  0  0  0  0  0  0
   -0.8563    1.7873   -0.2910 H   0  0  0  0  0  0  0  0  0  0  0  0
    0.7555   -2.1186    0.2903 H   0  0  0  0  0  0  0  0  0  0  0  0
  1  2  1  0
  2  3  1  0
  2  4  1  0
  4  5  2  0
  5  6  1  0
  6  7  1  0
  6  8  2  0
  8  9  1  0
  9 10  1  0
  9 11  2  0
 11  4  1  0
  1 12  1  0
  3 13  1  0
  5 14  1  0
 11 15  1  0
M  END
