
     RDKit          3D

 25 25  0  0  0  0  0  0  0  0999 V2000
   -1.7464    0.0185   -1.6267 C   0  0  0  0  0  0  0  0  0  0  0  0
   -1.3445   -0.2288   -0.1566 C   0  0  0  0  0  0  0  0  0  0  0  0
   -2.1443    0.7253    0.7567 C   0  0  0  0  0  0  0  0  0  0  0  0
   -1.7769   -1.6695    0.1984 C   0  0  0  0  0  0  0  0  0  0  0  0
    0.1631    0.0302    0.0183 C   0  0  0  0  0  0  0  0  0  0  0  0
    0.6990    1.3030   -0.2696 C   0  0  0  0  0  0  0  0  0  0  0  0
    2.0650    1.5752   -0.1223 C   0  0  0  0  0  0  0  0  0  0  0  0
    2.6843    3.3203   -0.5363 Br  0  0  0  0  0  0  0  0  0  0  0  0
    2.9330    0.5795    0.3178 C   0  0  0  0  0  0  0  0  0  0  0  0
    4.2674    0.8542    0.4591 O   0  0  0  0  0  0  0  0  0  0  0  0
    2.4241   -0.6863    0.6082 C   0  0  0  0  0  0  0  0  0  0  0  0
    3.5700   -2.0742    1.2109 Br  0  0  0  0  0  0  0  0  0  0  0  0
    1.0580   -0.9594    0.4611 C   0  0  0  0  0  0  0  0  0  0  0  0
   -1.1724   -0.6232   -2.3057 H   0  0  0  0  0  0  0  0  0  0  0  0
   -2.8100   -0.1935   -1.7868 H   0  0  0  0  0  0  0  0  0  0  0  0
   -1.5775    1.0564   -1.9341 H   0  0  0  0  0  0  0  0  0  0  0  0
   -3.2215    0.5373    0.6779 H   0  0  0  0  0  0  0  0  0  0  0  0
   -1.9837    1.7779    0.4991 H   0  0  0  0  0  0  0  0  0  0  0  0
   -1.8591    0.5965    1.8076 H   0  0  0  0  0  0  0  0  0  0  0  0
   -1.5561   -1.9109    1.2447 H   0  0  0  0  0  0  0  0  0  0  0  0
   -2.8562   -1.8039    0.0581 H   0  0  0  0  0  0  0  0  0  0  0  0
   -1.2754   -2.4093   -0.4364 H   0  0  0  0  0  0  0  0  0  0  0  0
    0.0449    2.1013   -0.6155 H   0  0  0  0  0  0  0  0  0  0  0  0
    4.7071    0.0437    0.7728 H   0  0  0  0  0  0  0  0  0  0  0  0
    0.7080   -1.9602    0.6994 H   0  0  0  0  0  0  0  0  0  0  0  0
  1  2  1  0
  2  3  1  0
  2  4  1  0
  2  5  1  0
  5  6  2  0
  6  7  1  0
  7  8  1  0
  7  9  2  0
  9 10  1  0
  9 11  1  0
 11 12  1  0
 11 13  2  0
 13  5  1  0
  1 14  1  0
  1 15  1  0
  1 16  1  0
  3 17  1  0
  3 18  1  0
  3 19  1  0
  4 20  1  0
  4 21  1  0
  4 22  1  0
  6 23  1  0
 10 24  1  0
 13 25  1  0
M  END
