
     RDKit          3D

 15 15  0  0  0  0  0  0  0  0999 V2000
    2.6451    0.3011   -0.9962 O   0  0  0  0  0  0  0  0  0  0  0  0
    1.6413   -0.7208   -0.6475 B   0  0  0  0  0  0  0  0  0  0  0  0
    2.1411   -1.7460    0.2954 O   0  0  0  0  0  0  0  0  0  0  0  0
    0.2177   -0.1474   -0.2841 C   0  0  0  0  0  0  0  0  0  0  0  0
   -0.8059   -1.0995   -0.3602 C   0  0  0  0  0  0  0  0  0  0  0  0
   -2.0656   -0.5957   -0.0395 C   0  0  0  0  0  0  0  0  0  0  0  0
   -3.5411   -1.8309   -0.1153 Br  0  0  0  0  0  0  0  0  0  0  0  0
   -2.3180    0.6651    0.3115 N   0  0  0  0  0  0  0  0  0  0  0  0
   -1.3050    1.5713    0.3780 C   0  0  0  0  0  0  0  0  0  0  0  0
   -1.5757    3.3787    0.8670 Br  0  0  0  0  0  0  0  0  0  0  0  0
   -0.0293    1.1565    0.0768 C   0  0  0  0  0  0  0  0  0  0  0  0
    2.8190    0.7822   -0.1489 H   0  0  0  0  0  0  0  0  0  0  0  0
    1.9741   -1.3644    1.2088 H   0  0  0  0  0  0  0  0  0  0  0  0
   -0.6444   -2.1207   -0.6379 H   0  0  0  0  0  0  0  0  0  0  0  0
    0.8467    1.7703    0.0922 H   0  0  0  0  0  0  0  0  0  0  0  0
  1  2  1  0
  2  3  1  0
  2  4  1  0
  4  5  2  0
  5  6  1  0
  6  7  1  0
  6  8  2  0
  8  9  1  0
  9 10  1  0
  9 11  2  0
 11  4  1  0
  1 12  1  0
  3 13  1  0
  5 14  1  0
 11 15  1  0
M  END
