
     RDKit          3D

 14 14  0  0  0  0  0  0  0  0999 V2000
   -2.2940    0.2163    0.3291 N   0  0  0  0  0  0  0  0  0  0  0  0
   -0.9151    0.0556    0.0741 C   0  0  0  0  0  0  0  0  0  0  0  0
   -0.2735   -1.1614    0.3823 C   0  0  0  0  0  0  0  0  0  0  0  0
   -1.2695   -2.6804    0.9470 Br  0  0  0  0  0  0  0  0  0  0  0  0
    1.1078   -1.3009    0.2640 C   0  0  0  0  0  0  0  0  0  0  0  0
    1.8701   -0.2101   -0.1326 C   0  0  0  0  0  0  0  0  0  0  0  0
    3.1978   -0.3719   -0.2389 F   0  0  0  0  0  0  0  0  0  0  0  0
    1.2818    1.0251   -0.4068 C   0  0  0  0  0  0  0  0  0  0  0  0
    2.3140    2.3308   -0.8790 Cl  0  0  0  0  0  0  0  0  0  0  0  0
   -0.1099    1.1625   -0.2866 C   0  0  0  0  0  0  0  0  0  0  0  0
   -0.9626    2.8405   -0.6364 Br  0  0  0  0  0  0  0  0  0  0  0  0
   -2.8277   -0.6487    0.2828 H   0  0  0  0  0  0  0  0  0  0  0  0
   -2.7236    0.9841   -0.1821 H   0  0  0  0  0  0  0  0  0  0  0  0
    1.6043   -2.2414    0.4831 H   0  0  0  0  0  0  0  0  0  0  0  0
  1  2  1  0
  2  3  2  0
  3  4  1  0
  3  5  1  0
  5  6  2  0
  6  7  1  0
  6  8  1  0
  8  9  1  0
  8 10  2  0
 10 11  1  0
 10  2  1  0
  1 12  1  0
  1 13  1  0
  5 14  1  0
M  END
