
     RDKit          3D

 13 13  0  0  0  0  0  0  0  0999 V2000
   -2.4495    0.5122    0.0929 O   0  0  0  0  0  0  0  0  0  0  0  0
   -1.1042    0.2616    0.0377 C   0  0  0  0  0  0  0  0  0  0  0  0
   -0.6091   -1.0389    0.1818 C   0  0  0  0  0  0  0  0  0  0  0  0
   -1.7861   -2.4995    0.4587 Br  0  0  0  0  0  0  0  0  0  0  0  0
    0.7628   -1.2839    0.1241 C   0  0  0  0  0  0  0  0  0  0  0  0
    1.6391   -0.2193   -0.0790 C   0  0  0  0  0  0  0  0  0  0  0  0
    3.3328   -0.5153   -0.1512 Cl  0  0  0  0  0  0  0  0  0  0  0  0
    1.1601    1.0818   -0.2242 C   0  0  0  0  0  0  0  0  0  0  0  0
   -0.2144    1.3206   -0.1655 C   0  0  0  0  0  0  0  0  0  0  0  0
   -0.8260    3.1048   -0.3677 Br  0  0  0  0  0  0  0  0  0  0  0  0
   -2.9112   -0.3334    0.2387 H   0  0  0  0  0  0  0  0  0  0  0  0
    1.1504   -2.2932    0.2357 H   0  0  0  0  0  0  0  0  0  0  0  0
    1.8552    1.9025   -0.3821 H   0  0  0  0  0  0  0  0  0  0  0  0
  1  2  1  0
  2  3  2  0
  3  4  1  0
  3  5  1  0
  5  6  2  0
  6  7  1  0
  6  8  1  0
  8  9  2  0
  9 10  1  0
  9  2  1  0
  1 11  1  0
  5 12  1  0
  8 13  1  0
M  END
