
     RDKit          3D

 16 17  0  0  0  0  0  0  0  0999 V2000
    3.5436   -1.1158   -1.7001 Br  0  0  0  0  0  0  0  0  0  0  0  0
    2.0331   -0.4866   -0.7574 C   0  0  0  0  0  0  0  0  0  0  0  0
    2.2002    0.3108    0.3693 C   0  0  0  0  0  0  0  0  0  0  0  0
    1.0752    0.7732    1.0627 C   0  0  0  0  0  0  0  0  0  0  0  0
   -0.2156    0.4571    0.6560 C   0  0  0  0  0  0  0  0  0  0  0  0
   -1.2619    0.9208    1.3487 N   0  0  0  0  0  0  0  0  0  0  0  0
   -2.4873    0.5839    0.9104 C   0  0  0  0  0  0  0  0  0  0  0  0
   -3.9725    1.2417    1.8930 Br  0  0  0  0  0  0  0  0  0  0  0  0
   -2.7484   -0.1783   -0.1634 N   0  0  0  0  0  0  0  0  0  0  0  0
   -1.6749   -0.6280   -0.8370 C   0  0  0  0  0  0  0  0  0  0  0  0
   -0.3649   -0.3467   -0.4804 C   0  0  0  0  0  0  0  0  0  0  0  0
    0.7546   -0.8217   -1.1914 C   0  0  0  0  0  0  0  0  0  0  0  0
    3.1931    0.5809    0.7204 H   0  0  0  0  0  0  0  0  0  0  0  0
    1.2116    1.3970    1.9440 H   0  0  0  0  0  0  0  0  0  0  0  0
   -1.9078   -1.2430   -1.7025 H   0  0  0  0  0  0  0  0  0  0  0  0
    0.6217   -1.4451   -2.0723 H   0  0  0  0  0  0  0  0  0  0  0  0
  1  2  1  0
  2  3  2  0
  3  4  1  0
  4  5  2  0
  5  6  1  0
  6  7  2  0
  7  8  1  0
  7  9  1  0
  9 10  2  0
 10 11  1  0
 11 12  2  0
 12  2  1  0
 11  5  1  0
  3 13  1  0
  4 14  1  0
 10 15  1  0
 12 16  1  0
M  END
