
     RDKit          3D

 13 13  0  0  0  0  0  0  0  0999 V2000
    1.2741    2.0894    0.3740 O   0  0  0  0  0  0  0  0  0  0  0  0
    0.5430    0.9499    0.1657 C   0  0  0  0  0  0  0  0  0  0  0  0
   -0.8446    1.0411    0.0108 C   0  0  0  0  0  0  0  0  0  0  0  0
   -1.7441    2.7091    0.0820 Br  0  0  0  0  0  0  0  0  0  0  0  0
   -1.6023   -0.1106   -0.2019 C   0  0  0  0  0  0  0  0  0  0  0  0
   -0.9644   -1.3447   -0.2579 C   0  0  0  0  0  0  0  0  0  0  0  0
   -1.6916   -2.4504   -0.4621 F   0  0  0  0  0  0  0  0  0  0  0  0
    0.4129   -1.4552   -0.1062 C   0  0  0  0  0  0  0  0  0  0  0  0
    1.1663   -0.3025    0.1061 C   0  0  0  0  0  0  0  0  0  0  0  0
    3.0440   -0.4634    0.3118 Br  0  0  0  0  0  0  0  0  0  0  0  0
    2.2117    1.8380    0.4585 H   0  0  0  0  0  0  0  0  0  0  0  0
   -2.6799   -0.0644   -0.3249 H   0  0  0  0  0  0  0  0  0  0  0  0
    0.8749   -2.4362   -0.1560 H   0  0  0  0  0  0  0  0  0  0  0  0
  1  2  1  0
  2  3  2  0
  3  4  1  0
  3  5  1  0
  5  6  2  0
  6  7  1  0
  6  8  1  0
  8  9  2  0
  9 10  1  0
  9  2  1  0
  1 11  1  0
  5 12  1  0
  8 13  1  0
M  END
