
     RDKit          3D

 14 14  0  0  0  0  0  0  0  0999 V2000
   -2.5607   -0.6797   -1.0534 O   0  0  0  0  0  0  0  0  0  0  0  0
   -1.9637   -0.1495   -0.1367 C   0  0  0  0  0  0  0  0  0  0  0  0
   -2.5697    0.2183    1.0021 O   0  0  0  0  0  0  0  0  0  0  0  0
   -0.5123    0.0413   -0.0675 C   0  0  0  0  0  0  0  0  0  0  0  0
    0.2986   -1.0631   -0.3483 C   0  0  0  0  0  0  0  0  0  0  0  0
    1.6833   -0.9273   -0.2942 C   0  0  0  0  0  0  0  0  0  0  0  0
    2.2082    0.3143    0.0298 C   0  0  0  0  0  0  0  0  0  0  0  0
    4.0909    0.5178    0.1123 Br  0  0  0  0  0  0  0  0  0  0  0  0
    1.4492    1.4011    0.2840 N   0  0  0  0  0  0  0  0  0  0  0  0
    0.1000    1.2536    0.2272 C   0  0  0  0  0  0  0  0  0  0  0  0
   -0.8882    2.8614    0.4879 Br  0  0  0  0  0  0  0  0  0  0  0  0
   -3.5182    0.0097    0.8643 H   0  0  0  0  0  0  0  0  0  0  0  0
   -0.1454   -2.0228   -0.6047 H   0  0  0  0  0  0  0  0  0  0  0  0
    2.3279   -1.7752   -0.5027 H   0  0  0  0  0  0  0  0  0  0  0  0
  1  2  2  0
  2  3  1  0
  2  4  1  0
  4  5  2  0
  5  6  1  0
  6  7  2  0
  7  8  1  0
  7  9  1  0
  9 10  2  0
 10 11  1  0
 10  4  1  0
  3 12  1  0
  5 13  1  0
  6 14  1  0
M  END
