
     RDKit          3D

 68 70  0  0  0  0  0  0  0  0999 V2000
   -8.4172    1.6907    2.2616 C   0  0  0  0  0  0  0  0  0  0  0  0
   -8.3781    0.8864    0.9714 C   0  0  0  0  0  0  0  0  0  0  0  0
   -7.3868    1.4338   -0.0582 C   0  0  0  0  0  0  0  0  0  0  0  0
   -5.9209    1.4644    0.3858 C   0  0  0  0  0  0  0  0  0  0  0  0
   -5.3298    0.1213    0.8275 C   0  0  0  0  0  0  0  0  0  0  0  0
   -5.3621   -0.9453   -0.2706 C   0  0  0  0  0  0  0  0  0  0  0  0
   -4.6856   -2.2570    0.1476 C   0  0  0  0  0  0  0  0  0  0  0  0
   -3.1632   -2.1699    0.2562 C   0  0  0  0  0  0  0  0  0  0  0  0
   -2.6267   -1.8462   -1.0348 O   0  0  0  0  0  0  0  0  0  0  0  0
   -1.2623   -1.6045   -0.9404 C   0  0  0  0  0  0  0  0  0  0  0  0
   -0.8238   -0.2806   -0.7412 C   0  0  0  0  0  0  0  0  0  0  0  0
   -1.5696    0.9425   -0.5950 C   0  0  0  0  0  0  0  0  0  0  0  0
   -0.7570    2.0203   -0.3793 C   0  0  0  0  0  0  0  0  0  0  0  0
   -1.4120    3.7960   -0.1207 Br  0  0  0  0  0  0  0  0  0  0  0  0
    0.8811    1.6240   -0.3612 S   0  0  0  0  0  0  0  0  0  0  0  0
    0.5516   -0.0476   -0.6676 C   0  0  0  0  0  0  0  0  0  0  0  0
    1.4648   -1.0995   -0.8324 C   0  0  0  0  0  0  0  0  0  0  0  0
    2.8290   -0.8599   -0.7317 O   0  0  0  0  0  0  0  0  0  0  0  0
    3.3701   -0.5344   -2.0174 C   0  0  0  0  0  0  0  0  0  0  0  0
    4.8871   -0.3804   -1.9087 C   0  0  0  0  0  0  0  0  0  0  0  0
    5.3492    0.9173   -1.2322 C   0  0  0  0  0  0  0  0  0  0  0  0
    5.1017    0.9571    0.2774 C   0  0  0  0  0  0  0  0  0  0  0  0
    5.6528    2.2166    0.9496 C   0  0  0  0  0  0  0  0  0  0  0  0
    7.1718    2.4170    0.9012 C   0  0  0  0  0  0  0  0  0  0  0  0
    7.9862    1.3492    1.6381 C   0  0  0  0  0  0  0  0  0  0  0  0
    8.4893    0.2344    0.7335 C   0  0  0  0  0  0  0  0  0  0  0  0
    1.0264   -2.4226   -1.0364 C   0  0  0  0  0  0  0  0  0  0  0  0
    1.7733   -3.6445   -1.1914 C   0  0  0  0  0  0  0  0  0  0  0  0
    0.9587   -4.7231   -1.3993 C   0  0  0  0  0  0  0  0  0  0  0  0
    1.6104   -6.5005   -1.6553 Br  0  0  0  0  0  0  0  0  0  0  0  0
   -0.6796   -4.3267   -1.4125 S   0  0  0  0  0  0  0  0  0  0  0  0
   -0.3491   -2.6558   -1.1067 C   0  0  0  0  0  0  0  0  0  0  0  0
   -8.6249    2.7466    2.0601 H   0  0  0  0  0  0  0  0  0  0  0  0
   -7.4711    1.6211    2.8064 H   0  0  0  0  0  0  0  0  0  0  0  0
   -9.2065    1.3101    2.9180 H   0  0  0  0  0  0  0  0  0  0  0  0
   -8.1544   -0.1615    1.1995 H   0  0  0  0  0  0  0  0  0  0  0  0
   -9.3797    0.8979    0.5243 H   0  0  0  0  0  0  0  0  0  0  0  0
   -7.6847    2.4556   -0.3268 H   0  0  0  0  0  0  0  0  0  0  0  0
   -7.4760    0.8449   -0.9790 H   0  0  0  0  0  0  0  0  0  0  0  0
   -5.8053    2.1823    1.2068 H   0  0  0  0  0  0  0  0  0  0  0  0
   -5.3193    1.8591   -0.4431 H   0  0  0  0  0  0  0  0  0  0  0  0
   -4.2956    0.3042    1.1379 H   0  0  0  0  0  0  0  0  0  0  0  0
   -5.8549   -0.2472    1.7160 H   0  0  0  0  0  0  0  0  0  0  0  0
   -6.4050   -1.1751   -0.5172 H   0  0  0  0  0  0  0  0  0  0  0  0
   -4.9006   -0.5563   -1.1855 H   0  0  0  0  0  0  0  0  0  0  0  0
   -4.9345   -3.0136   -0.6072 H   0  0  0  0  0  0  0  0  0  0  0  0
   -5.1020   -2.6013    1.1014 H   0  0  0  0  0  0  0  0  0  0  0  0
   -2.7795   -3.1443    0.5807 H   0  0  0  0  0  0  0  0  0  0  0  0
   -2.8733   -1.4227    1.0039 H   0  0  0  0  0  0  0  0  0  0  0  0
   -2.6495    0.9989   -0.6437 H   0  0  0  0  0  0  0  0  0  0  0  0
    2.9251    0.3891   -2.4062 H   0  0  0  0  0  0  0  0  0  0  0  0
    3.1568   -1.3468   -2.7236 H   0  0  0  0  0  0  0  0  0  0  0  0
    5.3126   -1.2390   -1.3756 H   0  0  0  0  0  0  0  0  0  0  0  0
    5.3006   -0.3893   -2.9247 H   0  0  0  0  0  0  0  0  0  0  0  0
    6.4226    1.0184   -1.4271 H   0  0  0  0  0  0  0  0  0  0  0  0
    4.8628    1.7767   -1.7097 H   0  0  0  0  0  0  0  0  0  0  0  0
    4.0241    0.9404    0.4679 H   0  0  0  0  0  0  0  0  0  0  0  0
    5.5106    0.0626    0.7579 H   0  0  0  0  0  0  0  0  0  0  0  0
    5.1764    3.0939    0.4938 H   0  0  0  0  0  0  0  0  0  0  0  0
    5.3349    2.2119    2.0000 H   0  0  0  0  0  0  0  0  0  0  0  0
    7.5184    2.5322   -0.1316 H   0  0  0  0  0  0  0  0  0  0  0  0
    7.3740    3.3796    1.3900 H   0  0  0  0  0  0  0  0  0  0  0  0
    8.8663    1.8348    2.0779 H   0  0  0  0  0  0  0  0  0  0  0  0
    7.4141    0.9266    2.4718 H   0  0  0  0  0  0  0  0  0  0  0  0
    9.1274   -0.4501    1.3026 H   0  0  0  0  0  0  0  0  0  0  0  0
    9.0840    0.6393   -0.0919 H   0  0  0  0  0  0  0  0  0  0  0  0
    7.6719   -0.3529    0.3100 H   0  0  0  0  0  0  0  0  0  0  0  0
    2.8545   -3.6987   -1.1527 H   0  0  0  0  0  0  0  0  0  0  0  0
  1  2  1  0
  2  3  1  0
  3  4  1  0
  4  5  1  0
  5  6  1  0
  6  7  1  0
  7  8  1  0
  8  9  1  0
  9 10  1  0
 10 11  2  0
 11 12  1  0
 12 13  2  0
 13 14  1  0
 13 15  1  0
 15 16  1  0
 16 17  2  0
 17 18  1  0
 18 19  1  0
 19 20  1  0
 20 21  1  0
 21 22  1  0
 22 23  1  0
 23 24  1  0
 24 25  1  0
 25 26  1  0
 17 27  1  0
 27 28  1  0
 28 29  2  0
 29 30  1  0
 29 31  1  0
 31 32  1  0
 32 10  1  0
 16 11  1  0
 32 27  2  0
  1 33  1  0
  1 34  1  0
  1 35  1  0
  2 36  1  0
  2 37  1  0
  3 38  1  0
  3 39  1  0
  4 40  1  0
  4 41  1  0
  5 42  1  0
  5 43  1  0
  6 44  1  0
  6 45  1  0
  7 46  1  0
  7 47  1  0
  8 48  1  0
  8 49  1  0
 12 50  1  0
 19 51  1  0
 19 52  1  0
 20 53  1  0
 20 54  1  0
 21 55  1  0
 21 56  1  0
 22 57  1  0
 22 58  1  0
 23 59  1  0
 23 60  1  0
 24 61  1  0
 24 62  1  0
 25 63  1  0
 25 64  1  0
 26 65  1  0
 26 66  1  0
 26 67  1  0
 28 68  1  0
M  END
