
     RDKit          3D

 20 20  0  0  0  0  0  0  0  0999 V2000
    2.7613    1.2029   -0.0470 C   0  0  0  0  0  0  0  0  0  0  0  0
    2.2315   -0.2028    0.1910 C   0  0  0  0  0  0  0  0  0  0  0  0
    0.7279   -0.2581    0.0997 C   0  0  0  0  0  0  0  0  0  0  0  0
   -0.0626   -0.0336    1.2323 C   0  0  0  0  0  0  0  0  0  0  0  0
   -1.4596   -0.0659    1.1403 C   0  0  0  0  0  0  0  0  0  0  0  0
   -2.4572    0.2652    2.7271 Br  0  0  0  0  0  0  0  0  0  0  0  0
   -2.1080   -0.3534   -0.0742 C   0  0  0  0  0  0  0  0  0  0  0  0
   -3.5113   -0.2567   -0.1884 N   0  0  0  0  0  0  0  0  0  0  0  0
   -1.2998   -0.5246   -1.2125 C   0  0  0  0  0  0  0  0  0  0  0  0
   -2.0735   -0.8363   -2.9234 Br  0  0  0  0  0  0  0  0  0  0  0  0
    0.0976   -0.4936   -1.1271 C   0  0  0  0  0  0  0  0  0  0  0  0
    2.4835    1.5692   -1.0412 H   0  0  0  0  0  0  0  0  0  0  0  0
    3.8534    1.2129    0.0252 H   0  0  0  0  0  0  0  0  0  0  0  0
    2.3658    1.9072    0.6928 H   0  0  0  0  0  0  0  0  0  0  0  0
    2.6708   -0.8933   -0.5391 H   0  0  0  0  0  0  0  0  0  0  0  0
    2.5543   -0.5588    1.1770 H   0  0  0  0  0  0  0  0  0  0  0  0
    0.4126    0.1773    2.1882 H   0  0  0  0  0  0  0  0  0  0  0  0
   -3.8861   -0.7695   -0.9822 H   0  0  0  0  0  0  0  0  0  0  0  0
   -3.9992   -0.4448    0.6835 H   0  0  0  0  0  0  0  0  0  0  0  0
    0.6984   -0.6434   -2.0219 H   0  0  0  0  0  0  0  0  0  0  0  0
  1  2  1  0
  2  3  1  0
  3  4  2  0
  4  5  1  0
  5  6  1  0
  5  7  2  0
  7  8  1  0
  7  9  1  0
  9 10  1  0
  9 11  2  0
 11  3  1  0
  1 12  1  0
  1 13  1  0
  1 14  1  0
  2 15  1  0
  2 16  1  0
  4 17  1  0
  8 18  1  0
  8 19  1  0
 11 20  1  0
M  END
