
     RDKit          3D

 12 12  0  0  0  0  0  0  0  0999 V2000
    2.0484    1.2541   -0.0792 O   0  0  0  0  0  0  0  0  0  0  0  0
    0.9082    0.5055   -0.0179 C   0  0  0  0  0  0  0  0  0  0  0  0
   -0.2738    1.1082   -0.4229 C   0  0  0  0  0  0  0  0  0  0  0  0
   -1.4567    0.3755   -0.3743 C   0  0  0  0  0  0  0  0  0  0  0  0
   -1.4038   -0.9362    0.0803 C   0  0  0  0  0  0  0  0  0  0  0  0
   -3.0111   -1.9410    0.1495 Br  0  0  0  0  0  0  0  0  0  0  0  0
   -0.2684   -1.5479    0.4804 N   0  0  0  0  0  0  0  0  0  0  0  0
    0.8653   -0.8160    0.4238 C   0  0  0  0  0  0  0  0  0  0  0  0
    2.4698   -1.6674    0.9847 Br  0  0  0  0  0  0  0  0  0  0  0  0
    2.7894    0.7025    0.2338 H   0  0  0  0  0  0  0  0  0  0  0  0
   -0.2744    2.1366   -0.7723 H   0  0  0  0  0  0  0  0  0  0  0  0
   -2.3929    0.8263   -0.6860 H   0  0  0  0  0  0  0  0  0  0  0  0
  1  2  1  0
  2  3  2  0
  3  4  1  0
  4  5  2  0
  5  6  1  0
  5  7  1  0
  7  8  2  0
  8  9  1  0
  8  2  1  0
  1 10  1  0
  3 11  1  0
  4 12  1  0
M  END
