
     RDKit          3D

 11 11  0  0  0  0  0  0  0  0999 V2000
    2.8532   -1.6879   -0.0527 Br  0  0  0  0  0  0  0  0  0  0  0  0
    1.1839   -0.7878   -0.0245 C   0  0  0  0  0  0  0  0  0  0  0  0
    1.1750    0.5996    0.0179 C   0  0  0  0  0  0  0  0  0  0  0  0
   -0.0540    1.2511    0.0383 C   0  0  0  0  0  0  0  0  0  0  0  0
   -1.2223    0.4961    0.0156 C   0  0  0  0  0  0  0  0  0  0  0  0
   -1.1115   -0.8868   -0.0267 C   0  0  0  0  0  0  0  0  0  0  0  0
   -2.6971   -1.9274   -0.0579 Br  0  0  0  0  0  0  0  0  0  0  0  0
    0.0666   -1.5435   -0.0472 N   0  0  0  0  0  0  0  0  0  0  0  0
    2.0989    1.1677    0.0349 H   0  0  0  0  0  0  0  0  0  0  0  0
   -0.1009    2.3362    0.0715 H   0  0  0  0  0  0  0  0  0  0  0  0
   -2.1918    0.9826    0.0309 H   0  0  0  0  0  0  0  0  0  0  0  0
  1  2  1  0
  2  3  2  0
  3  4  1  0
  4  5  2  0
  5  6  1  0
  6  7  1  0
  6  8  2  0
  8  2  1  0
  3  9  1  0
  4 10  1  0
  5 11  1  0
M  END
