
     RDKit          3D

 15 15  0  0  0  0  0  0  0  0999 V2000
    0.1635    2.0755    0.0488 N   0  0  0  0  0  0  0  0  0  0  0  0
    0.2946    0.6763    0.0952 C   0  0  0  0  0  0  0  0  0  0  0  0
    1.5805    0.1302    0.1277 C   0  0  0  0  0  0  0  0  0  0  0  0
    1.7344   -1.2482    0.0663 C   0  0  0  0  0  0  0  0  0  0  0  0
    3.4818   -1.9785    0.1489 Br  0  0  0  0  0  0  0  0  0  0  0  0
    0.7030   -2.1088   -0.0499 N   0  0  0  0  0  0  0  0  0  0  0  0
   -0.5420   -1.5836   -0.1498 C   0  0  0  0  0  0  0  0  0  0  0  0
   -1.9368   -2.8769   -0.2756 Br  0  0  0  0  0  0  0  0  0  0  0  0
   -0.7702   -0.2158   -0.1118 C   0  0  0  0  0  0  0  0  0  0  0  0
   -2.1039    0.2942   -0.2689 N   0  0  0  0  0  4  0  0  0  0  0  0
   -2.5807    0.9180    0.6904 O   0  0  0  0  0  0  0  0  0  0  0  0
   -2.6637    0.1087   -1.3567 O   0  0  0  0  0  1  0  0  0  0  0  0
    0.9272    2.5973    0.4738 H   0  0  0  0  0  0  0  0  0  0  0  0
   -0.7403    2.4390    0.3593 H   0  0  0  0  0  0  0  0  0  0  0  0
    2.4526    0.7726    0.2026 H   0  0  0  0  0  0  0  0  0  0  0  0
  1  2  1  0
  2  3  2  0
  3  4  1  0
  4  5  1  0
  4  6  2  0
  6  7  1  0
  7  8  1  0
  7  9  2  0
  9 10  1  0
 10 11  2  0
 10 12  1  0
  9  2  1  0
  1 13  1  0
  1 14  1  0
  3 15  1  0
M  CHG  2  10   1  12  -1
M  END
