
     RDKit          3D

 26 26  0  0  0  0  0  0  0  0999 V2000
   -2.2638   -0.3270    0.9538 C   0  0  0  0  0  0  0  0  0  0  0  0
   -1.5509    0.1204   -0.3409 C   0  0  0  0  0  0  0  0  0  0  0  0
   -1.9804   -0.8018   -1.5022 C   0  0  0  0  0  0  0  0  0  0  0  0
   -2.0595    1.5415   -0.6727 C   0  0  0  0  0  0  0  0  0  0  0  0
   -0.0264    0.0336   -0.1494 C   0  0  0  0  0  0  0  0  0  0  0  0
    0.8228    1.1413   -0.2943 C   0  0  0  0  0  0  0  0  0  0  0  0
    2.2105    1.0256   -0.1133 C   0  0  0  0  0  0  0  0  0  0  0  0
    3.2650    2.5937   -0.3533 Br  0  0  0  0  0  0  0  0  0  0  0  0
    2.8063   -0.1909    0.2540 C   0  0  0  0  0  0  0  0  0  0  0  0
    4.2089   -0.3290    0.3066 N   0  0  0  0  0  0  0  0  0  0  0  0
    1.9641   -1.3081    0.3516 C   0  0  0  0  0  0  0  0  0  0  0  0
    2.6655   -3.0286    0.7659 Br  0  0  0  0  0  0  0  0  0  0  0  0
    0.5777   -1.1962    0.1718 C   0  0  0  0  0  0  0  0  0  0  0  0
   -3.3522   -0.2398    0.8561 H   0  0  0  0  0  0  0  0  0  0  0  0
   -1.9549    0.2887    1.8069 H   0  0  0  0  0  0  0  0  0  0  0  0
   -2.0485   -1.3709    1.2068 H   0  0  0  0  0  0  0  0  0  0  0  0
   -1.4686   -0.5287   -2.4327 H   0  0  0  0  0  0  0  0  0  0  0  0
   -3.0596   -0.7335   -1.6827 H   0  0  0  0  0  0  0  0  0  0  0  0
   -1.7555   -1.8548   -1.3003 H   0  0  0  0  0  0  0  0  0  0  0  0
   -1.6303    1.9156   -1.6095 H   0  0  0  0  0  0  0  0  0  0  0  0
   -3.1497    1.5531   -0.7919 H   0  0  0  0  0  0  0  0  0  0  0  0
   -1.8148    2.2537    0.1240 H   0  0  0  0  0  0  0  0  0  0  0  0
    0.4240    2.1167   -0.5597 H   0  0  0  0  0  0  0  0  0  0  0  0
    4.5145   -1.1219    0.8648 H   0  0  0  0  0  0  0  0  0  0  0  0
    4.6902    0.5372    0.5342 H   0  0  0  0  0  0  0  0  0  0  0  0
   -0.0345   -2.0899    0.2768 H   0  0  0  0  0  0  0  0  0  0  0  0
  1  2  1  0
  2  3  1  0
  2  4  1  0
  2  5  1  0
  5  6  2  0
  6  7  1  0
  7  8  1  0
  7  9  2  0
  9 10  1  0
  9 11  1  0
 11 12  1  0
 11 13  2  0
 13  5  1  0
  1 14  1  0
  1 15  1  0
  1 16  1  0
  3 17  1  0
  3 18  1  0
  3 19  1  0
  4 20  1  0
  4 21  1  0
  4 22  1  0
  6 23  1  0
 10 24  1  0
 10 25  1  0
 13 26  1  0
M  END
