
     RDKit          3D

 20 20  0  0  0  0  0  0  0  0999 V2000
    2.9690    0.4866    0.1496 C   0  0  0  0  0  0  0  0  0  0  0  0
    2.1190   -0.7045   -0.2656 C   0  0  0  0  0  0  0  0  0  0  0  0
    0.6455   -0.4091   -0.1498 C   0  0  0  0  0  0  0  0  0  0  0  0
   -0.0373   -0.6523    1.0472 C   0  0  0  0  0  0  0  0  0  0  0  0
   -1.4019   -0.3583    1.1582 C   0  0  0  0  0  0  0  0  0  0  0  0
   -2.2476   -0.7066    2.8273 Br  0  0  0  0  0  0  0  0  0  0  0  0
   -2.1318    0.1563    0.0716 C   0  0  0  0  0  0  0  0  0  0  0  0
   -3.4717    0.5706    0.2285 N   0  0  0  0  0  0  0  0  0  0  0  0
   -1.4192    0.4434   -1.1065 C   0  0  0  0  0  0  0  0  0  0  0  0
   -2.2892    1.2188   -2.6113 Br  0  0  0  0  0  0  0  0  0  0  0  0
   -0.0546    0.1517   -1.2238 C   0  0  0  0  0  0  0  0  0  0  0  0
    2.7761    0.7689    1.1901 H   0  0  0  0  0  0  0  0  0  0  0  0
    4.0322    0.2438    0.0555 H   0  0  0  0  0  0  0  0  0  0  0  0
    2.7634    1.3598   -0.4788 H   0  0  0  0  0  0  0  0  0  0  0  0
    2.3580   -0.9889   -1.2976 H   0  0  0  0  0  0  0  0  0  0  0  0
    2.3707   -1.5737    0.3542 H   0  0  0  0  0  0  0  0  0  0  0  0
    0.4994   -1.0632    1.9000 H   0  0  0  0  0  0  0  0  0  0  0  0
   -3.9804    0.6265   -0.6500 H   0  0  0  0  0  0  0  0  0  0  0  0
   -3.9682    0.0589    0.9533 H   0  0  0  0  0  0  0  0  0  0  0  0
    0.4685    0.3713   -2.1523 H   0  0  0  0  0  0  0  0  0  0  0  0
  1  2  1  0
  2  3  1  0
  3  4  2  0
  4  5  1  0
  5  6  1  0
  5  7  2  0
  7  8  1  0
  7  9  1  0
  9 10  1  0
  9 11  2  0
 11  3  1  0
  1 12  1  0
  1 13  1  0
  1 14  1  0
  2 15  1  0
  2 16  1  0
  4 17  1  0
  8 18  1  0
  8 19  1  0
 11 20  1  0
M  END
