
     RDKit          3D

 68 72  0  0  0  0  0  0  0  0999 V2000
    7.9266    1.4260   -0.3051 C   0  0  0  0  0  0  0  0  0  0  0  0
    7.2836    0.0540   -0.0009 C   0  0  0  0  0  0  0  0  0  0  0  0
    7.8024   -0.3964    1.3818 C   0  0  0  0  0  0  0  0  0  0  0  0
    7.7838   -0.9331   -1.0777 C   0  0  0  0  0  0  0  0  0  0  0  0
    5.7448    0.0757    0.0059 C   0  0  0  0  0  0  0  0  0  0  0  0
    5.0015    1.2403   -0.2443 C   0  0  0  0  0  0  0  0  0  0  0  0
    3.6010    1.2269   -0.2328 C   0  0  0  0  0  0  0  0  0  0  0  0
    2.8948    0.0468    0.0295 C   0  0  0  0  0  0  0  0  0  0  0  0
    3.6242   -1.1204    0.2810 C   0  0  0  0  0  0  0  0  0  0  0  0
    5.0230   -1.1044    0.2690 C   0  0  0  0  0  0  0  0  0  0  0  0
    1.4130    0.0338    0.0377 C   0  0  0  0  0  0  0  0  0  0  0  0
    0.7037   -0.2378   -1.1727 C   0  0  0  0  0  0  0  0  0  0  0  0
    1.3684   -0.4997   -2.4010 C   0  0  0  0  0  0  0  0  0  0  0  0
    0.6737   -0.7640   -3.5788 C   0  0  0  0  0  0  0  0  0  0  0  0
   -0.7070   -0.7775   -3.5775 C   0  0  0  0  0  0  0  0  0  0  0  0
   -1.3854   -0.5238   -2.3859 C   0  0  0  0  0  0  0  0  0  0  0  0
   -0.7126   -0.2502   -1.1646 C   0  0  0  0  0  0  0  0  0  0  0  0
   -1.4134    0.0089    0.0533 C   0  0  0  0  0  0  0  0  0  0  0  0
   -0.7042    0.2805    1.2637 C   0  0  0  0  0  0  0  0  0  0  0  0
    0.7122    0.2929    1.2556 C   0  0  0  0  0  0  0  0  0  0  0  0
    1.3850    0.5666    2.4769 C   0  0  0  0  0  0  0  0  0  0  0  0
    0.7065    0.8201    3.6685 C   0  0  0  0  0  0  0  0  0  0  0  0
   -0.6741    0.8065    3.6698 C   0  0  0  0  0  0  0  0  0  0  0  0
   -1.3688    0.5422    2.4920 C   0  0  0  0  0  0  0  0  0  0  0  0
   -1.6199    1.1464    5.2698 Br  0  0  0  0  0  0  0  0  0  0  0  0
   -2.8952   -0.0043    0.0615 C   0  0  0  0  0  0  0  0  0  0  0  0
   -3.6011   -1.1837    0.3230 C   0  0  0  0  0  0  0  0  0  0  0  0
   -5.0000   -1.1909    0.3330 C   0  0  0  0  0  0  0  0  0  0  0  0
   -5.7453   -0.0228    0.0826 C   0  0  0  0  0  0  0  0  0  0  0  0
   -5.0255    1.1539   -0.1790 C   0  0  0  0  0  0  0  0  0  0  0  0
   -3.6250    1.1638   -0.1896 C   0  0  0  0  0  0  0  0  0  0  0  0
   -7.2834   -0.0692    0.1042 C   0  0  0  0  0  0  0  0  0  0  0  0
   -7.9539    1.2920   -0.1892 C   0  0  0  0  0  0  0  0  0  0  0  0
   -7.7693   -0.5263    1.4966 C   0  0  0  0  0  0  0  0  0  0  0  0
   -7.7876   -1.0654   -0.9623 C   0  0  0  0  0  0  0  0  0  0  0  0
    1.6195   -1.1043   -5.1787 Br  0  0  0  0  0  0  0  0  0  0  0  0
    7.6331    1.7991   -1.2933 H   0  0  0  0  0  0  0  0  0  0  0  0
    7.6455    2.1779    0.4415 H   0  0  0  0  0  0  0  0  0  0  0  0
    9.0212    1.3595   -0.2985 H   0  0  0  0  0  0  0  0  0  0  0  0
    8.8982   -0.3869    1.4151 H   0  0  0  0  0  0  0  0  0  0  0  0
    7.4836   -1.4139    1.6330 H   0  0  0  0  0  0  0  0  0  0  0  0
    7.4387    0.2676    2.1750 H   0  0  0  0  0  0  0  0  0  0  0  0
    8.8789   -0.9418   -1.1278 H   0  0  0  0  0  0  0  0  0  0  0  0
    7.4066   -0.6587   -2.0700 H   0  0  0  0  0  0  0  0  0  0  0  0
    7.4645   -1.9618   -0.8776 H   0  0  0  0  0  0  0  0  0  0  0  0
    5.4870    2.1889   -0.4561 H   0  0  0  0  0  0  0  0  0  0  0  0
    3.0607    2.1504   -0.4328 H   0  0  0  0  0  0  0  0  0  0  0  0
    3.1049   -2.0542    0.4874 H   0  0  0  0  0  0  0  0  0  0  0  0
    5.5441   -2.0384    0.4691 H   0  0  0  0  0  0  0  0  0  0  0  0
    2.4562   -0.4984   -2.4447 H   0  0  0  0  0  0  0  0  0  0  0  0
   -1.2685   -0.9813   -4.4847 H   0  0  0  0  0  0  0  0  0  0  0  0
   -2.4739   -0.5433   -2.4257 H   0  0  0  0  0  0  0  0  0  0  0  0
    2.4735    0.5862    2.5166 H   0  0  0  0  0  0  0  0  0  0  0  0
    1.2681    1.0240    4.5757 H   0  0  0  0  0  0  0  0  0  0  0  0
   -2.4566    0.5408    2.5358 H   0  0  0  0  0  0  0  0  0  0  0  0
   -3.0631   -2.1084    0.5227 H   0  0  0  0  0  0  0  0  0  0  0  0
   -5.5022   -2.1331    0.5429 H   0  0  0  0  0  0  0  0  0  0  0  0
   -5.5300    2.0950   -0.3804 H   0  0  0  0  0  0  0  0  0  0  0  0
   -3.1034    2.0968   -0.3955 H   0  0  0  0  0  0  0  0  0  0  0  0
   -9.0470    1.2078   -0.1631 H   0  0  0  0  0  0  0  0  0  0  0  0
   -7.6839    1.6690   -1.1826 H   0  0  0  0  0  0  0  0  0  0  0  0
   -7.6718    2.0489    0.5519 H   0  0  0  0  0  0  0  0  0  0  0  0
   -7.4016    0.1442    2.2824 H   0  0  0  0  0  0  0  0  0  0  0  0
   -8.8643   -0.5343    1.5503 H   0  0  0  0  0  0  0  0  0  0  0  0
   -7.4297   -1.5384    1.7427 H   0  0  0  0  0  0  0  0  0  0  0  0
   -7.4332   -0.7860   -1.9617 H   0  0  0  0  0  0  0  0  0  0  0  0
   -7.4483   -2.0886   -0.7673 H   0  0  0  0  0  0  0  0  0  0  0  0
   -8.8832   -1.0916   -0.9921 H   0  0  0  0  0  0  0  0  0  0  0  0
  1  2  1  0
  2  3  1  0
  2  4  1  0
  2  5  1  0
  5  6  2  0
  6  7  1  0
  7  8  2  0
  8  9  1  0
  9 10  2  0
  8 11  1  0
 11 12  1  0
 12 13  2  0
 13 14  1  0
 14 15  2  0
 15 16  1  0
 16 17  2  0
 17 18  1  0
 18 19  2  0
 19 20  1  0
 20 21  1  0
 21 22  2  0
 22 23  1  0
 23 24  2  0
 23 25  1  0
 18 26  1  0
 26 27  2  0
 27 28  1  0
 28 29  2  0
 29 30  1  0
 30 31  2  0
 29 32  1  0
 32 33  1  0
 32 34  1  0
 32 35  1  0
 14 36  1  0
 10  5  1  0
 20 11  2  0
 17 12  1  0
 24 19  1  0
 31 26  1  0
  1 37  1  0
  1 38  1  0
  1 39  1  0
  3 40  1  0
  3 41  1  0
  3 42  1  0
  4 43  1  0
  4 44  1  0
  4 45  1  0
  6 46  1  0
  7 47  1  0
  9 48  1  0
 10 49  1  0
 13 50  1  0
 15 51  1  0
 16 52  1  0
 21 53  1  0
 22 54  1  0
 24 55  1  0
 27 56  1  0
 28 57  1  0
 30 58  1  0
 31 59  1  0
 33 60  1  0
 33 61  1  0
 33 62  1  0
 34 63  1  0
 34 64  1  0
 34 65  1  0
 35 66  1  0
 35 67  1  0
 35 68  1  0
M  END
