
     RDKit          3D

 20 21  0  0  0  0  0  0  0  0999 V2000
    2.1547    2.0999   -0.3196 O   0  0  0  0  0  0  0  0  0  0  0  0
    1.6590    0.8314   -0.1259 C   0  0  0  0  0  0  0  0  0  0  0  0
    2.5297   -0.2507    0.0402 C   0  0  0  0  0  0  0  0  0  0  0  0
    4.4089   -0.0042    0.0039 Br  0  0  0  0  0  0  0  0  0  0  0  0
    2.0231   -1.5299    0.2355 C   0  0  0  0  0  0  0  0  0  0  0  0
    0.6413   -1.7259    0.2644 C   0  0  0  0  0  0  0  0  0  0  0  0
   -0.2595   -0.6519    0.0995 C   0  0  0  0  0  0  0  0  0  0  0  0
   -1.6590   -0.8314    0.1259 C   0  0  0  0  0  0  0  0  0  0  0  0
   -2.1547   -2.0999    0.3196 O   0  0  0  0  0  0  0  0  0  0  0  0
   -2.5297    0.2507   -0.0402 C   0  0  0  0  0  0  0  0  0  0  0  0
   -4.4089    0.0042   -0.0039 Br  0  0  0  0  0  0  0  0  0  0  0  0
   -2.0231    1.5299   -0.2355 C   0  0  0  0  0  0  0  0  0  0  0  0
   -0.6413    1.7259   -0.2644 C   0  0  0  0  0  0  0  0  0  0  0  0
    0.2595    0.6519   -0.0995 C   0  0  0  0  0  0  0  0  0  0  0  0
    3.1272    2.0365   -0.3092 H   0  0  0  0  0  0  0  0  0  0  0  0
    2.6855   -2.3814    0.3662 H   0  0  0  0  0  0  0  0  0  0  0  0
    0.2589   -2.7344    0.4184 H   0  0  0  0  0  0  0  0  0  0  0  0
   -3.1272   -2.0365    0.3092 H   0  0  0  0  0  0  0  0  0  0  0  0
   -2.6855    2.3814   -0.3662 H   0  0  0  0  0  0  0  0  0  0  0  0
   -0.2589    2.7344   -0.4184 H   0  0  0  0  0  0  0  0  0  0  0  0
  1  2  1  0
  2  3  2  0
  3  4  1  0
  3  5  1  0
  5  6  2  0
  6  7  1  0
  7  8  2  0
  8  9  1  0
  8 10  1  0
 10 11  1  0
 10 12  2  0
 12 13  1  0
 13 14  2  0
 14  2  1  0
 14  7  1  0
  1 15  1  0
  5 16  1  0
  6 17  1  0
  9 18  1  0
 12 19  1  0
 13 20  1  0
M  END
