
     RDKit          3D

 30 31  0  0  0  0  0  0  0  0999 V2000
   -4.9623   -0.6812    0.4225 N   0  0  0  0  0  0  0  0  0  0  0  0
   -3.5987   -0.3512    0.2716 C   0  0  0  0  0  0  0  0  0  0  0  0
   -3.1367    0.3072   -0.8809 C   0  0  0  0  0  0  0  0  0  0  0  0
   -4.3562    0.9632   -2.1871 Br  0  0  0  0  0  0  0  0  0  0  0  0
   -1.7702    0.5252   -1.1000 C   0  0  0  0  0  0  0  0  0  0  0  0
   -0.8151    0.0585   -0.1870 C   0  0  0  0  0  0  0  0  0  0  0  0
    0.6618    0.3024   -0.4454 C   0  0  0  0  0  0  0  0  0  0  0  0
    1.4300   -1.0145   -0.6528 C   0  0  0  0  0  0  0  0  0  0  0  0
    2.9123   -0.7599   -0.9210 C   0  0  0  0  0  0  0  0  0  0  0  0
    3.5467    0.0858    0.1793 C   0  0  0  0  0  0  0  0  0  0  0  0
    2.7894    1.3933    0.3928 C   0  0  0  0  0  0  0  0  0  0  0  0
    1.3067    1.1474    0.6671 C   0  0  0  0  0  0  0  0  0  0  0  0
   -1.2622   -0.6405    0.9423 C   0  0  0  0  0  0  0  0  0  0  0  0
   -2.6300   -0.8555    1.1561 C   0  0  0  0  0  0  0  0  0  0  0  0
   -3.1378   -1.8317    2.7093 Br  0  0  0  0  0  0  0  0  0  0  0  0
   -5.5870   -0.0379   -0.0567 H   0  0  0  0  0  0  0  0  0  0  0  0
   -5.2277   -0.8621    1.3871 H   0  0  0  0  0  0  0  0  0  0  0  0
   -1.4495    1.0553   -1.9947 H   0  0  0  0  0  0  0  0  0  0  0  0
    0.7522    0.8782   -1.3778 H   0  0  0  0  0  0  0  0  0  0  0  0
    1.3364   -1.6597    0.2299 H   0  0  0  0  0  0  0  0  0  0  0  0
    0.9999   -1.5724   -1.4939 H   0  0  0  0  0  0  0  0  0  0  0  0
    3.0262   -0.2498   -1.8855 H   0  0  0  0  0  0  0  0  0  0  0  0
    3.4412   -1.7163   -1.0017 H   0  0  0  0  0  0  0  0  0  0  0  0
    4.5898    0.3021   -0.0775 H   0  0  0  0  0  0  0  0  0  0  0  0
    3.5597   -0.4850    1.1160 H   0  0  0  0  0  0  0  0  0  0  0  0
    2.8959    2.0267   -0.4965 H   0  0  0  0  0  0  0  0  0  0  0  0
    3.2324    1.9430    1.2309 H   0  0  0  0  0  0  0  0  0  0  0  0
    1.2059    0.6491    1.6396 H   0  0  0  0  0  0  0  0  0  0  0  0
    0.7894    2.1109    0.7553 H   0  0  0  0  0  0  0  0  0  0  0  0
   -0.5423   -1.0306    1.6587 H   0  0  0  0  0  0  0  0  0  0  0  0
  1  2  1  0
  2  3  2  0
  3  4  1  0
  3  5  1  0
  5  6  2  0
  6  7  1  0
  7  8  1  0
  8  9  1  0
  9 10  1  0
 10 11  1  0
 11 12  1  0
  6 13  1  0
 13 14  2  0
 14 15  1  0
 14  2  1  0
 12  7  1  0
  1 16  1  0
  1 17  1  0
  5 18  1  0
  7 19  1  0
  8 20  1  0
  8 21  1  0
  9 22  1  0
  9 23  1  0
 10 24  1  0
 10 25  1  0
 11 26  1  0
 11 27  1  0
 12 28  1  0
 12 29  1  0
 13 30  1  0
M  END
