
     RDKit          3D

 14 14  0  0  0  0  0  0  0  0999 V2000
    2.7052    1.3084    1.0270 O   0  0  0  0  0  0  0  0  0  0  0  0
    2.2548    0.6182    0.1226 C   0  0  0  0  0  0  0  0  0  0  0  0
    0.8270    0.2443    0.0458 C   0  0  0  0  0  0  0  0  0  0  0  0
    0.4801   -1.0767   -0.2896 C   0  0  0  0  0  0  0  0  0  0  0  0
    1.7682   -2.4348   -0.6281 Br  0  0  0  0  0  0  0  0  0  0  0  0
   -0.8627   -1.4585   -0.3575 C   0  0  0  0  0  0  0  0  0  0  0  0
   -1.8535   -0.5238   -0.0940 C   0  0  0  0  0  0  0  0  0  0  0  0
   -3.1388   -0.8916   -0.1608 F   0  0  0  0  0  0  0  0  0  0  0  0
   -1.5346    0.7874    0.2296 C   0  0  0  0  0  0  0  0  0  0  0  0
   -0.1931    1.1784    0.2976 C   0  0  0  0  0  0  0  0  0  0  0  0
    0.1256    3.0175    0.6586 Br  0  0  0  0  0  0  0  0  0  0  0  0
    2.9155    0.2145   -0.6620 H   0  0  0  0  0  0  0  0  0  0  0  0
   -1.1534   -2.4755   -0.6061 H   0  0  0  0  0  0  0  0  0  0  0  0
   -2.3402    1.4923    0.4168 H   0  0  0  0  0  0  0  0  0  0  0  0
  1  2  2  0
  2  3  1  0
  3  4  2  0
  4  5  1  0
  4  6  1  0
  6  7  2  0
  7  8  1  0
  7  9  1  0
  9 10  2  0
 10 11  1  0
 10  3  1  0
  2 12  1  0
  6 13  1  0
  9 14  1  0
M  END
