
     RDKit          3D

 13 13  0  0  0  0  0  0  0  0999 V2000
    3.5956    0.1545   -0.1171 C   0  0  0  0  0  3  0  0  0  0  0  0
    2.4246    0.1042   -0.0790 N   0  0  0  0  0  4  0  0  0  0  0  0
    1.0353    0.0445   -0.0337 C   0  0  0  0  0  0  0  0  0  0  0  0
    0.2865    1.2274   -0.0019 C   0  0  0  0  0  0  0  0  0  0  0  0
    1.0940    2.9435   -0.0179 Br  0  0  0  0  0  0  0  0  0  0  0  0
   -1.1073    1.1654    0.0435 C   0  0  0  0  0  0  0  0  0  0  0  0
   -1.7356   -0.0746    0.0565 C   0  0  0  0  0  0  0  0  0  0  0  0
   -3.0723   -0.1320    0.1001 F   0  0  0  0  0  0  0  0  0  0  0  0
   -1.0038   -1.2561    0.0253 C   0  0  0  0  0  0  0  0  0  0  0  0
    0.3902   -1.1983   -0.0201 C   0  0  0  0  0  0  0  0  0  0  0  0
    1.3411   -2.8388   -0.0614 Br  0  0  0  0  0  0  0  0  0  0  0  0
   -1.7154    2.0653    0.0690 H   0  0  0  0  0  0  0  0  0  0  0  0
   -1.5329   -2.2049    0.0368 H   0  0  0  0  0  0  0  0  0  0  0  0
  1  2  3  0
  2  3  1  0
  3  4  2  0
  4  5  1  0
  4  6  1  0
  6  7  2  0
  7  8  1  0
  7  9  1  0
  9 10  2  0
 10 11  1  0
 10  3  1  0
  6 12  1  0
  9 13  1  0
M  CHG  2   1  -1   2   1
M  END
