
     RDKit          3D

 14 15  0  0  0  0  0  0  0  0999 V2000
   -3.7360   -0.4325    0.1960 Br  0  0  0  0  0  0  0  0  0  0  0  0
   -1.9021   -0.1265    0.1439 C   0  0  0  0  0  0  0  0  0  0  0  0
   -1.3911    1.1296    0.6808 C   0  0  0  0  0  0  0  0  0  0  0  0
   -0.0742    1.4147    0.6742 C   0  0  0  0  0  0  0  0  0  0  0  0
    0.8438    0.4738    0.1329 C   0  0  0  0  0  0  0  0  0  0  0  0
    2.1492    0.4927    0.0021 N   0  0  0  0  0  0  0  0  0  0  0  0
    2.4104   -0.7091   -0.5919 C   0  0  0  0  0  0  0  0  0  0  0  0
    4.1627   -1.2513   -1.0347 Br  0  0  0  0  0  0  0  0  0  0  0  0
    1.3475   -1.4777   -0.8401 N   0  0  0  0  0  0  0  0  0  0  0  0
    0.3279   -0.7210   -0.3747 N   0  0  0  0  0  0  0  0  0  0  0  0
   -1.0329   -1.0141   -0.3671 C   0  0  0  0  0  0  0  0  0  0  0  0
   -2.0989    1.8439    1.0930 H   0  0  0  0  0  0  0  0  0  0  0  0
    0.3090    2.3478    1.0727 H   0  0  0  0  0  0  0  0  0  0  0  0
   -1.3154   -1.9702   -0.7872 H   0  0  0  0  0  0  0  0  0  0  0  0
  1  2  1  0
  2  3  1  0
  3  4  2  0
  4  5  1  0
  5  6  2  0
  6  7  1  0
  7  8  1  0
  7  9  2  0
  9 10  1  0
 10 11  1  0
 11  2  2  0
 10  5  1  0
  3 12  1  0
  4 13  1  0
 11 14  1  0
M  END
