
     RDKit          3D

 13 13  0  0  0  0  0  0  0  0999 V2000
   -3.1189    0.5650    0.3055 O   0  0  0  0  0  0  0  0  0  0  0  0
   -2.2278   -0.2694    0.2923 C   0  0  0  0  0  0  0  0  0  0  0  0
   -0.7919    0.0253    0.0905 C   0  0  0  0  0  0  0  0  0  0  0  0
    0.0784   -1.0738    0.1092 C   0  0  0  0  0  0  0  0  0  0  0  0
    1.4459   -0.8805   -0.0733 C   0  0  0  0  0  0  0  0  0  0  0  0
    1.9037    0.4105   -0.2696 C   0  0  0  0  0  0  0  0  0  0  0  0
    3.7596    0.6975   -0.5200 Br  0  0  0  0  0  0  0  0  0  0  0  0
    1.0929    1.4862   -0.2927 N   0  0  0  0  0  0  0  0  0  0  0  0
   -0.2410    1.2883   -0.1136 C   0  0  0  0  0  0  0  0  0  0  0  0
   -1.2606    2.8942   -0.1706 Br  0  0  0  0  0  0  0  0  0  0  0  0
   -2.4762   -1.3349    0.4388 H   0  0  0  0  0  0  0  0  0  0  0  0
   -0.2932   -2.0844    0.2644 H   0  0  0  0  0  0  0  0  0  0  0  0
    2.1290   -1.7238   -0.0608 H   0  0  0  0  0  0  0  0  0  0  0  0
  1  2  2  0
  2  3  1  0
  3  4  2  0
  4  5  1  0
  5  6  2  0
  6  7  1  0
  6  8  1  0
  8  9  2  0
  9 10  1  0
  9  3  1  0
  2 11  1  0
  4 12  1  0
  5 13  1  0
M  END
