
     RDKit          3D

 16 16  0  0  0  0  0  0  0  0999 V2000
   -1.9631   -0.4096    0.0412 C   0  0  0  0  0  0  0  0  0  0  0  0
   -0.5639    0.1407    0.0255 C   0  0  0  0  0  0  0  0  0  0  0  0
   -0.3751    1.5275    0.1106 C   0  0  0  0  0  0  0  0  0  0  0  0
    0.9158    2.0345    0.1350 C   0  0  0  0  0  0  0  0  0  0  0  0
    1.1564    3.9126    0.2485 Br  0  0  0  0  0  0  0  0  0  0  0  0
    2.0188    1.2678    0.0925 N   0  0  0  0  0  0  0  0  0  0  0  0
    1.8220   -0.0680    0.0137 C   0  0  0  0  0  0  0  0  0  0  0  0
    3.4076   -1.1319   -0.0193 Br  0  0  0  0  0  0  0  0  0  0  0  0
    0.5615   -0.6949   -0.0748 C   0  0  0  0  0  0  0  0  0  0  0  0
    0.4121   -2.0957   -0.0425 N   0  0  0  0  0  0  0  0  0  0  0  0
   -2.1816   -0.9155   -0.9047 H   0  0  0  0  0  0  0  0  0  0  0  0
   -2.0874   -1.1136    0.8704 H   0  0  0  0  0  0  0  0  0  0  0  0
   -2.7067    0.3839    0.1718 H   0  0  0  0  0  0  0  0  0  0  0  0
   -1.2262    2.1992    0.1698 H   0  0  0  0  0  0  0  0  0  0  0  0
   -0.4337   -2.4438   -0.4811 H   0  0  0  0  0  0  0  0  0  0  0  0
    1.2435   -2.5933   -0.3566 H   0  0  0  0  0  0  0  0  0  0  0  0
  1  2  1  0
  2  3  2  0
  3  4  1  0
  4  5  1  0
  4  6  2  0
  6  7  1  0
  7  8  1  0
  7  9  2  0
  9 10  1  0
  9  2  1  0
  1 11  1  0
  1 12  1  0
  1 13  1  0
  3 14  1  0
 10 15  1  0
 10 16  1  0
M  END
