
     RDKit          3D

 14 14  0  0  0  0  0  0  0  0999 V2000
   -2.2702    0.4256    0.2869 N   0  0  0  0  0  0  0  0  0  0  0  0
   -0.9017    0.1746    0.0498 C   0  0  0  0  0  0  0  0  0  0  0  0
   -0.4711   -1.1144   -0.3253 C   0  0  0  0  0  0  0  0  0  0  0  0
   -1.7232   -2.4893   -0.7261 Br  0  0  0  0  0  0  0  0  0  0  0  0
    0.8836   -1.4206   -0.4362 C   0  0  0  0  0  0  0  0  0  0  0  0
    1.8277   -0.4467   -0.1387 C   0  0  0  0  0  0  0  0  0  0  0  0
    3.1252   -0.7680   -0.2542 F   0  0  0  0  0  0  0  0  0  0  0  0
    1.4471    0.8297    0.2773 C   0  0  0  0  0  0  0  0  0  0  0  0
    2.6944    1.9721    0.6411 Cl  0  0  0  0  0  0  0  0  0  0  0  0
    0.0816    1.1350    0.3882 C   0  0  0  0  0  0  0  0  0  0  0  0
   -0.4910    2.8668    0.9698 Br  0  0  0  0  0  0  0  0  0  0  0  0
   -2.5224    1.4110    0.2572 H   0  0  0  0  0  0  0  0  0  0  0  0
   -2.8995   -0.1688   -0.2479 H   0  0  0  0  0  0  0  0  0  0  0  0
    1.2196   -2.4069   -0.7421 H   0  0  0  0  0  0  0  0  0  0  0  0
  1  2  1  0
  2  3  2  0
  3  4  1  0
  3  5  1  0
  5  6  2  0
  6  7  1  0
  6  8  1  0
  8  9  1  0
  8 10  2  0
 10 11  1  0
 10  2  1  0
  1 12  1  0
  1 13  1  0
  5 14  1  0
M  END
