
     RDKit          3D

 13 13  0  0  0  0  0  0  0  0999 V2000
   -2.1741   -0.4148    0.2656 N   0  0  0  0  0  0  0  0  0  0  0  0
   -0.8238   -0.0601    0.1082 C   0  0  0  0  0  0  0  0  0  0  0  0
   -0.0080   -0.8455   -0.7074 C   0  0  0  0  0  0  0  0  0  0  0  0
    1.3607   -0.5918   -0.7830 C   0  0  0  0  0  0  0  0  0  0  0  0
    1.8870    0.4282   -0.0059 C   0  0  0  0  0  0  0  0  0  0  0  0
    3.7472    0.7835   -0.1049 Br  0  0  0  0  0  0  0  0  0  0  0  0
    1.1512    1.1832    0.8318 N   0  0  0  0  0  0  0  0  0  0  0  0
   -0.1734    0.9101    0.8910 C   0  0  0  0  0  0  0  0  0  0  0  0
   -1.1876    1.9708    2.1097 Br  0  0  0  0  0  0  0  0  0  0  0  0
   -2.5993   -0.8395   -0.5526 H   0  0  0  0  0  0  0  0  0  0  0  0
   -2.7438    0.3313    0.6607 H   0  0  0  0  0  0  0  0  0  0  0  0
   -0.4299   -1.6635   -1.2852 H   0  0  0  0  0  0  0  0  0  0  0  0
    1.9938   -1.1919   -1.4279 H   0  0  0  0  0  0  0  0  0  0  0  0
  1  2  1  0
  2  3  2  0
  3  4  1  0
  4  5  2  0
  5  6  1  0
  5  7  1  0
  7  8  2  0
  8  9  1  0
  8  2  1  0
  1 10  1  0
  1 11  1  0
  3 12  1  0
  4 13  1  0
M  END
