
     RDKit          3D

 12 12  0  0  0  0  0  0  0  0999 V2000
   -1.6728   -1.6222    0.1213 O   0  0  0  0  0  0  0  0  0  0  0  0
   -0.6820   -0.6876    0.0549 C   0  0  0  0  0  0  0  0  0  0  0  0
    0.6146   -1.1045    0.3091 C   0  0  0  0  0  0  0  0  0  0  0  0
    1.6183   -0.1546    0.2412 C   0  0  0  0  0  0  0  0  0  0  0  0
    3.4060   -0.6878    0.5830 Br  0  0  0  0  0  0  0  0  0  0  0  0
    1.4010    1.1438   -0.0569 N   0  0  0  0  0  0  0  0  0  0  0  0
    0.1250    1.5093   -0.2978 C   0  0  0  0  0  0  0  0  0  0  0  0
   -0.1988    3.3309   -0.7185 Br  0  0  0  0  0  0  0  0  0  0  0  0
   -0.9505    0.6360   -0.2551 C   0  0  0  0  0  0  0  0  0  0  0  0
   -2.5294   -1.2065   -0.0758 H   0  0  0  0  0  0  0  0  0  0  0  0
    0.8248   -2.1397    0.5516 H   0  0  0  0  0  0  0  0  0  0  0  0
   -1.9561    0.9828   -0.4571 H   0  0  0  0  0  0  0  0  0  0  0  0
  1  2  1  0
  2  3  2  0
  3  4  1  0
  4  5  1  0
  4  6  2  0
  6  7  1  0
  7  8  1  0
  7  9  2  0
  9  2  1  0
  1 10  1  0
  3 11  1  0
  9 12  1  0
M  END
