
     RDKit          3D

 14 14  0  0  0  0  0  0  0  0999 V2000
   -2.8186    0.1193    0.4561 F   0  0  0  0  0  0  0  0  0  0  0  0
   -1.8962   -0.7280   -0.0757 C   0  0  0  0  0  0  0  0  0  0  0  0
   -2.2893   -0.9596   -1.3565 F   0  0  0  0  0  0  0  0  0  0  0  0
   -2.0456   -1.9078    0.5854 F   0  0  0  0  0  0  0  0  0  0  0  0
   -0.4937   -0.1884   -0.0019 C   0  0  0  0  0  0  0  0  0  0  0  0
   -0.2528    1.1887   -0.0576 C   0  0  0  0  0  0  0  0  0  0  0  0
    1.0584    1.6359   -0.0083 C   0  0  0  0  0  0  0  0  0  0  0  0
    1.3902    3.5012   -0.0775 Br  0  0  0  0  0  0  0  0  0  0  0  0
    2.1228    0.8150    0.0851 N   0  0  0  0  0  0  0  0  0  0  0  0
    1.8764   -0.5091    0.1286 C   0  0  0  0  0  0  0  0  0  0  0  0
    3.3648   -1.6767    0.2529 Br  0  0  0  0  0  0  0  0  0  0  0  0
    0.6023   -1.0537    0.0855 C   0  0  0  0  0  0  0  0  0  0  0  0
   -1.0766    1.8935   -0.1364 H   0  0  0  0  0  0  0  0  0  0  0  0
    0.4579   -2.1305    0.1203 H   0  0  0  0  0  0  0  0  0  0  0  0
  1  2  1  0
  2  3  1  0
  2  4  1  0
  2  5  1  0
  5  6  2  0
  6  7  1  0
  7  8  1  0
  7  9  2  0
  9 10  1  0
 10 11  1  0
 10 12  2  0
 12  5  1  0
  6 13  1  0
 12 14  1  0
M  END
