
     RDKit          3D

 31 32  0  0  0  0  0  0  0  0999 V2000
   -2.4217   -1.0453   -1.4652 C   0  0  0  0  0  0  0  0  0  0  0  0
   -1.3657   -0.2100   -0.7880 C   0  0  0  0  0  0  0  0  0  0  0  0
   -1.1460    1.1095   -1.4593 C   0  0  0  0  0  0  0  0  0  0  0  0
   -0.1339   -0.8668   -0.7541 O   0  0  0  0  0  0  0  0  0  0  0  0
    0.5531   -0.0877    0.3012 B   0  0  0  0  0  0  0  0  0  0  0  0
    2.0993    0.1749    0.2577 C   0  0  0  0  0  0  0  0  0  0  0  0
    2.9297   -0.7967   -0.2568 C   0  0  0  0  0  0  0  0  0  0  0  0
    4.3180   -0.6886   -0.3523 C   0  0  0  0  0  0  0  0  0  0  0  0
    5.2865   -2.1481   -1.0963 Br  0  0  0  0  0  0  0  0  0  0  0  0
    4.8393    0.4535    0.0980 N   0  0  0  0  0  0  0  0  0  0  0  0
    4.0770    1.4369    0.6106 C   0  0  0  0  0  0  0  0  0  0  0  0
    4.9454    3.0345    1.2261 Br  0  0  0  0  0  0  0  0  0  0  0  0
    2.7067    1.3226    0.7016 C   0  0  0  0  0  0  0  0  0  0  0  0
   -0.4458    0.6797    1.0481 O   0  0  0  0  0  0  0  0  0  0  0  0
   -1.6048   -0.0446    0.7019 C   0  0  0  0  0  0  0  0  0  0  0  0
   -2.8720    0.6658    1.0167 C   0  0  0  0  0  0  0  0  0  0  0  0
   -1.4469   -1.3697    1.4189 C   0  0  0  0  0  0  0  0  0  0  0  0
   -3.4176   -0.6912   -1.2072 H   0  0  0  0  0  0  0  0  0  0  0  0
   -2.2436   -0.9637   -2.5498 H   0  0  0  0  0  0  0  0  0  0  0  0
   -2.2143   -2.1067   -1.2005 H   0  0  0  0  0  0  0  0  0  0  0  0
   -0.1741    1.5143   -1.1393 H   0  0  0  0  0  0  0  0  0  0  0  0
   -1.0736    0.9376   -2.5500 H   0  0  0  0  0  0  0  0  0  0  0  0
   -1.9251    1.8282   -1.1689 H   0  0  0  0  0  0  0  0  0  0  0  0
    2.4567   -1.7210   -0.6159 H   0  0  0  0  0  0  0  0  0  0  0  0
    2.0753    2.1048    1.1119 H   0  0  0  0  0  0  0  0  0  0  0  0
   -3.6088   -0.0871    1.4062 H   0  0  0  0  0  0  0  0  0  0  0  0
   -2.7704    1.4579    1.7710 H   0  0  0  0  0  0  0  0  0  0  0  0
   -3.3522    1.0602    0.0762 H   0  0  0  0  0  0  0  0  0  0  0  0
   -1.3390   -1.1136    2.5001 H   0  0  0  0  0  0  0  0  0  0  0  0
   -0.4540   -1.7730    1.1210 H   0  0  0  0  0  0  0  0  0  0  0  0
   -2.2771   -2.0668    1.2364 H   0  0  0  0  0  0  0  0  0  0  0  0
  1  2  1  0
  2  3  1  0
  2  4  1  0
  4  5  1  0
  5  6  1  0
  6  7  2  0
  7  8  1  0
  8  9  1  0
  8 10  2  0
 10 11  1  0
 11 12  1  0
 11 13  2  0
  5 14  1  0
 14 15  1  0
 15 16  1  0
 15 17  1  0
 15  2  1  0
 13  6  1  0
  1 18  1  0
  1 19  1  0
  1 20  1  0
  3 21  1  0
  3 22  1  0
  3 23  1  0
  7 24  1  0
 13 25  1  0
 16 26  1  0
 16 27  1  0
 16 28  1  0
 17 29  1  0
 17 30  1  0
 17 31  1  0
M  END
