
     RDKit          3D

 20 20  0  0  0  0  0  0  0  0999 V2000
   -2.9291   -0.1112    0.6944 C   0  0  0  0  0  0  0  0  0  0  0  0
   -2.0783   -0.7701   -0.3805 C   0  0  0  0  0  0  0  0  0  0  0  0
   -0.6308   -0.3623   -0.2780 C   0  0  0  0  0  0  0  0  0  0  0  0
   -0.1617    0.7724   -0.9491 C   0  0  0  0  0  0  0  0  0  0  0  0
    1.1791    1.1601   -0.8359 C   0  0  0  0  0  0  0  0  0  0  0  0
    1.7280    2.7248   -1.7704 Br  0  0  0  0  0  0  0  0  0  0  0  0
    2.0972    0.4119   -0.0774 C   0  0  0  0  0  0  0  0  0  0  0  0
    3.4117    0.8784    0.1373 N   0  0  0  0  0  0  0  0  0  0  0  0
    1.5976   -0.6949    0.6322 C   0  0  0  0  0  0  0  0  0  0  0  0
    2.7332   -1.7302    1.7553 Br  0  0  0  0  0  0  0  0  0  0  0  0
    0.2580   -1.0879    0.5231 C   0  0  0  0  0  0  0  0  0  0  0  0
   -3.9731   -0.4249    0.5958 H   0  0  0  0  0  0  0  0  0  0  0  0
   -2.5854   -0.3864    1.6973 H   0  0  0  0  0  0  0  0  0  0  0  0
   -2.8938    0.9806    0.6153 H   0  0  0  0  0  0  0  0  0  0  0  0
   -2.4658   -0.5080   -1.3726 H   0  0  0  0  0  0  0  0  0  0  0  0
   -2.1605   -1.8610   -0.3017 H   0  0  0  0  0  0  0  0  0  0  0  0
   -0.8470    1.3622   -1.5545 H   0  0  0  0  0  0  0  0  0  0  0  0
    3.7611    1.4583   -0.6212 H   0  0  0  0  0  0  0  0  0  0  0  0
    4.0575    0.1450    0.4182 H   0  0  0  0  0  0  0  0  0  0  0  0
   -0.0980   -1.9570    1.0724 H   0  0  0  0  0  0  0  0  0  0  0  0
  1  2  1  0
  2  3  1  0
  3  4  2  0
  4  5  1  0
  5  6  1  0
  5  7  2  0
  7  8  1  0
  7  9  1  0
  9 10  1  0
  9 11  2  0
 11  3  1  0
  1 12  1  0
  1 13  1  0
  1 14  1  0
  2 15  1  0
  2 16  1  0
  4 17  1  0
  8 18  1  0
  8 19  1  0
 11 20  1  0
M  END
