
     RDKit          3D

 14 15  0  0  0  0  0  0  0  0999 V2000
   -3.5452   -1.2681    0.0833 Br  0  0  0  0  0  0  0  0  0  0  0  0
   -1.8315   -0.5458    0.0499 C   0  0  0  0  0  0  0  0  0  0  0  0
   -1.6856    0.9029    0.1341 C   0  0  0  0  0  0  0  0  0  0  0  0
   -0.4735    1.4913    0.1153 C   0  0  0  0  0  0  0  0  0  0  0  0
    0.6941    0.6871    0.0112 C   0  0  0  0  0  0  0  0  0  0  0  0
    1.9704    0.9893   -0.0285 N   0  0  0  0  0  0  0  0  0  0  0  0
    2.5672   -0.2347   -0.1327 C   0  0  0  0  0  0  0  0  0  0  0  0
    4.4411   -0.4337   -0.2312 Br  0  0  0  0  0  0  0  0  0  0  0  0
    1.7415   -1.2832   -0.1605 N   0  0  0  0  0  0  0  0  0  0  0  0
    0.5261   -0.6974   -0.0679 N   0  0  0  0  0  0  0  0  0  0  0  0
   -0.7268   -1.3037   -0.0484 C   0  0  0  0  0  0  0  0  0  0  0  0
   -2.5829    1.5111    0.2135 H   0  0  0  0  0  0  0  0  0  0  0  0
   -0.3617    2.5683    0.1778 H   0  0  0  0  0  0  0  0  0  0  0  0
   -0.7332   -2.3834   -0.1158 H   0  0  0  0  0  0  0  0  0  0  0  0
  1  2  1  0
  2  3  1  0
  3  4  2  0
  4  5  1  0
  5  6  2  0
  6  7  1  0
  7  8  1  0
  7  9  2  0
  9 10  1  0
 10 11  1  0
 11  2  2  0
 10  5  1  0
  3 12  1  0
  4 13  1  0
 11 14  1  0
M  END
