
     RDKit          3D

 18 18  0  0  0  0  0  0  0  0999 V2000
   -3.2528    0.3824   -0.1524 N   0  0  0  0  0  0  0  0  0  0  0  0
   -1.8792    0.1232    0.0248 C   0  0  0  0  0  0  0  0  0  0  0  0
   -0.9784    0.2216   -1.0505 C   0  0  0  0  0  0  0  0  0  0  0  0
   -1.6095    0.5023   -2.8256 Br  0  0  0  0  0  0  0  0  0  0  0  0
    0.4067    0.0961   -0.8664 C   0  0  0  0  0  0  0  0  0  0  0  0
    0.9260   -0.0970    0.4120 C   0  0  0  0  0  0  0  0  0  0  0  0
    2.2436   -0.2348    0.7435 O   0  0  0  0  0  0  0  0  0  0  0  0
    3.2020   -0.1989   -0.3015 C   0  0  0  0  0  0  0  0  0  0  0  0
    3.1754    0.9888   -0.9418 F   0  0  0  0  0  0  0  0  0  0  0  0
    2.9888   -1.1945   -1.1876 F   0  0  0  0  0  0  0  0  0  0  0  0
    4.4319   -0.3643    0.2315 F   0  0  0  0  0  0  0  0  0  0  0  0
    0.0499   -0.1522    1.4984 C   0  0  0  0  0  0  0  0  0  0  0  0
   -1.3306   -0.0259    1.3090 C   0  0  0  0  0  0  0  0  0  0  0  0
   -2.4458   -0.0935    2.8490 Br  0  0  0  0  0  0  0  0  0  0  0  0
   -3.8385   -0.0020    0.5848 H   0  0  0  0  0  0  0  0  0  0  0  0
   -3.5902    0.1723   -1.0884 H   0  0  0  0  0  0  0  0  0  0  0  0
    1.0495    0.1627   -1.7396 H   0  0  0  0  0  0  0  0  0  0  0  0
    0.4514   -0.2863    2.5009 H   0  0  0  0  0  0  0  0  0  0  0  0
  1  2  1  0
  2  3  2  0
  3  4  1  0
  3  5  1  0
  5  6  2  0
  6  7  1  0
  7  8  1  0
  8  9  1  0
  8 10  1  0
  8 11  1  0
  6 12  1  0
 12 13  2  0
 13 14  1  0
 13  2  1  0
  1 15  1  0
  1 16  1  0
  5 17  1  0
 12 18  1  0
M  END
