
     RDKit          3D

 14 14  0  0  0  0  0  0  0  0999 V2000
    2.7055    0.8238    0.0299 O   0  0  0  0  0  0  0  0  0  0  0  0
    1.9135   -0.0837   -0.1372 C   0  0  0  0  0  0  0  0  0  0  0  0
    2.3166   -1.3242   -0.4567 O   0  0  0  0  0  0  0  0  0  0  0  0
    0.4432    0.0259   -0.0210 C   0  0  0  0  0  0  0  0  0  0  0  0
   -0.0991    1.2676    0.3073 C   0  0  0  0  0  0  0  0  0  0  0  0
   -1.4735    1.3624    0.4141 C   0  0  0  0  0  0  0  0  0  0  0  0
   -2.2433    3.0369    0.8591 Br  0  0  0  0  0  0  0  0  0  0  0  0
   -2.3104    0.3237    0.2185 N   0  0  0  0  0  0  0  0  0  0  0  0
   -1.7577   -0.8649   -0.0978 C   0  0  0  0  0  0  0  0  0  0  0  0
   -2.9300   -2.3298   -0.3740 Br  0  0  0  0  0  0  0  0  0  0  0  0
   -0.3966   -1.0670   -0.2292 C   0  0  0  0  0  0  0  0  0  0  0  0
    3.2947   -1.2571   -0.5007 H   0  0  0  0  0  0  0  0  0  0  0  0
    0.5386    2.1305    0.4732 H   0  0  0  0  0  0  0  0  0  0  0  0
   -0.0014   -2.0440   -0.4856 H   0  0  0  0  0  0  0  0  0  0  0  0
  1  2  2  0
  2  3  1  0
  2  4  1  0
  4  5  2  0
  5  6  1  0
  6  7  1  0
  6  8  2  0
  8  9  1  0
  9 10  1  0
  9 11  2  0
 11  4  1  0
  3 12  1  0
  5 13  1  0
 11 14  1  0
M  END
