
     RDKit          3D

 17 18  0  0  0  0  0  0  0  0999 V2000
    4.2896    0.3275   -0.3588 Br  0  0  0  0  0  0  0  0  0  0  0  0
    2.4473    0.1187    0.0116 C   0  0  0  0  0  0  0  0  0  0  0  0
    2.0425   -0.2993    1.2746 C   0  0  0  0  0  0  0  0  0  0  0  0
    0.6831   -0.4508    1.5397 C   0  0  0  0  0  0  0  0  0  0  0  0
   -0.2661   -0.1830    0.5388 C   0  0  0  0  0  0  0  0  0  0  0  0
   -1.6393   -0.3251    0.7719 C   0  0  0  0  0  0  0  0  0  0  0  0
   -2.5434   -0.0492   -0.2477 C   0  0  0  0  0  0  0  0  0  0  0  0
   -2.0405    0.3609   -1.4702 C   0  0  0  0  0  0  0  0  0  0  0  0
   -3.2564    0.7426   -2.8751 Br  0  0  0  0  0  0  0  0  0  0  0  0
   -0.7229    0.5083   -1.7289 N   0  0  0  0  0  0  0  0  0  0  0  0
    0.1489    0.2415   -0.7432 C   0  0  0  0  0  0  0  0  0  0  0  0
    1.5071    0.3853   -0.9840 C   0  0  0  0  0  0  0  0  0  0  0  0
    2.7715   -0.5080    2.0533 H   0  0  0  0  0  0  0  0  0  0  0  0
    0.3691   -0.7779    2.5285 H   0  0  0  0  0  0  0  0  0  0  0  0
   -2.0099   -0.6489    1.7412 H   0  0  0  0  0  0  0  0  0  0  0  0
   -3.6097   -0.1546   -0.0822 H   0  0  0  0  0  0  0  0  0  0  0  0
    1.8291    0.7119   -1.9697 H   0  0  0  0  0  0  0  0  0  0  0  0
  1  2  1  0
  2  3  2  0
  3  4  1  0
  4  5  2  0
  5  6  1  0
  6  7  2  0
  7  8  1  0
  8  9  1  0
  8 10  2  0
 10 11  1  0
 11 12  2  0
 12  2  1  0
 11  5  1  0
  3 13  1  0
  4 14  1  0
  6 15  1  0
  7 16  1  0
 12 17  1  0
M  END
