
     RDKit          3D

 14 15  0  0  0  0  0  0  0  0999 V2000
    3.5833    1.9124    0.0341 Br  0  0  0  0  0  0  0  0  0  0  0  0
    2.0134    0.8470    0.0084 C   0  0  0  0  0  0  0  0  0  0  0  0
    2.1440   -0.5388   -0.0592 C   0  0  0  0  0  0  0  0  0  0  0  0
    1.0999   -1.4095   -0.0839 N   0  0  0  0  0  0  0  0  0  0  0  0
   -0.0739   -0.7459   -0.0341 C   0  0  0  0  0  0  0  0  0  0  0  0
   -1.3148   -1.3246   -0.0420 N   0  0  0  0  0  0  0  0  0  0  0  0
   -2.2812   -0.3488    0.0194 C   0  0  0  0  0  0  0  0  0  0  0  0
   -1.6329    0.8651    0.0666 C   0  0  0  0  0  0  0  0  0  0  0  0
   -2.4399    2.5539    0.1591 Br  0  0  0  0  0  0  0  0  0  0  0  0
   -0.2410    0.6373    0.0339 C   0  0  0  0  0  0  0  0  0  0  0  0
    0.8225    1.4866    0.0574 N   0  0  0  0  0  0  0  0  0  0  0  0
    3.1228   -1.0073   -0.0967 H   0  0  0  0  0  0  0  0  0  0  0  0
   -1.4699   -2.3220   -0.0867 H   0  0  0  0  0  0  0  0  0  0  0  0
   -3.3321   -0.6054    0.0237 H   0  0  0  0  0  0  0  0  0  0  0  0
  1  2  1  0
  2  3  2  0
  3  4  1  0
  4  5  2  0
  5  6  1  0
  6  7  1  0
  7  8  2  0
  8  9  1  0
  8 10  1  0
 10 11  2  0
 11  2  1  0
 10  5  1  0
  3 12  1  0
  6 13  1  0
  7 14  1  0
M  END
