
     RDKit          3D

 14 15  0  0  0  0  0  0  0  0999 V2000
   -2.9896    2.2534   -0.4220 Br  0  0  0  0  0  0  0  0  0  0  0  0
   -1.5657    1.0721   -0.1742 C   0  0  0  0  0  0  0  0  0  0  0  0
   -1.8647   -0.2180    0.4406 C   0  0  0  0  0  0  0  0  0  0  0  0
   -0.8671   -1.0978    0.6369 C   0  0  0  0  0  0  0  0  0  0  0  0
    0.4317   -0.7691    0.2533 N   0  0  0  0  0  0  0  0  0  0  0  0
    1.5565   -1.5088    0.3652 N   0  0  0  0  0  0  0  0  0  0  0  0
    2.4823   -0.7010   -0.1569 C   0  0  0  0  0  0  0  0  0  0  0  0
    4.2971   -1.2036   -0.2758 Br  0  0  0  0  0  0  0  0  0  0  0  0
    2.0326    0.5109   -0.5988 N   0  0  0  0  0  0  0  0  0  0  0  0
    0.7473    0.4569   -0.3368 C   0  0  0  0  0  0  0  0  0  0  0  0
   -0.3079    1.3888   -0.5449 C   0  0  0  0  0  0  0  0  0  0  0  0
   -2.8841   -0.4519    0.7312 H   0  0  0  0  0  0  0  0  0  0  0  0
   -1.0030   -2.0733    1.0850 H   0  0  0  0  0  0  0  0  0  0  0  0
   -0.0654    2.3414   -1.0029 H   0  0  0  0  0  0  0  0  0  0  0  0
  1  2  1  0
  2  3  1  0
  3  4  2  0
  4  5  1  0
  5  6  1  0
  6  7  2  0
  7  8  1  0
  7  9  1  0
  9 10  2  0
 10 11  1  0
 11  2  2  0
 10  5  1  0
  3 12  1  0
  4 13  1  0
 11 14  1  0
M  END
