
     RDKit          3D

 22 24  0  0  0  0  0  0  0  0999 V2000
    5.1628   -1.1399   -0.5307 Br  0  0  0  0  0  0  0  0  0  0  0  0
    3.3788   -0.6111   -0.1800 C   0  0  0  0  0  0  0  0  0  0  0  0
    3.1210    0.2692    0.8674 C   0  0  0  0  0  0  0  0  0  0  0  0
    1.8089    0.6729    1.1437 C   0  0  0  0  0  0  0  0  0  0  0  0
    0.7489    0.1813    0.3529 C   0  0  0  0  0  0  0  0  0  0  0  0
    1.0453   -0.6987   -0.6877 C   0  0  0  0  0  0  0  0  0  0  0  0
    2.3504   -1.1155   -0.9813 C   0  0  0  0  0  0  0  0  0  0  0  0
   -0.1459   -1.0231   -1.2937 N   0  0  0  0  0  0  0  0  0  0  0  0
   -1.1998   -0.3849   -0.6825 C   0  0  0  0  0  0  0  0  0  0  0  0
   -2.5705   -0.4278   -0.9700 C   0  0  0  0  0  0  0  0  0  0  0  0
   -3.4177    0.3387   -0.1644 C   0  0  0  0  0  0  0  0  0  0  0  0
   -5.2798    0.3194   -0.5068 Br  0  0  0  0  0  0  0  0  0  0  0  0
   -2.9238    1.1139    0.8813 C   0  0  0  0  0  0  0  0  0  0  0  0
   -1.5500    1.1423    1.1514 C   0  0  0  0  0  0  0  0  0  0  0  0
   -0.6689    0.3794    0.3561 C   0  0  0  0  0  0  0  0  0  0  0  0
    3.9329    0.6518    1.4807 H   0  0  0  0  0  0  0  0  0  0  0  0
    1.6115    1.3597    1.9617 H   0  0  0  0  0  0  0  0  0  0  0  0
    2.5527   -1.8013   -1.7972 H   0  0  0  0  0  0  0  0  0  0  0  0
   -0.2349   -1.6470   -2.0825 H   0  0  0  0  0  0  0  0  0  0  0  0
   -2.9568   -1.0314   -1.7846 H   0  0  0  0  0  0  0  0  0  0  0  0
   -3.5969    1.7040    1.4980 H   0  0  0  0  0  0  0  0  0  0  0  0
   -1.1682    1.7482    1.9681 H   0  0  0  0  0  0  0  0  0  0  0  0
  1  2  1  0
  2  3  2  0
  3  4  1  0
  4  5  2  0
  5  6  1  0
  6  7  2  0
  6  8  1  0
  8  9  1  0
  9 10  2  0
 10 11  1  0
 11 12  1  0
 11 13  2  0
 13 14  1  0
 14 15  2  0
  7  2  1  0
 15  9  1  0
 15  5  1  0
  3 16  1  0
  4 17  1  0
  7 18  1  0
  8 19  1  0
 10 20  1  0
 13 21  1  0
 14 22  1  0
M  END
