
     RDKit          3D

 31 33  0  0  0  0  0  0  0  0999 V2000
   -0.1618   -1.7043   -1.4629 C   0  0  0  0  0  0  0  0  0  0  0  0
   -0.0536   -0.9685   -0.1052 C   0  0  0  0  0  0  0  0  0  0  0  0
   -0.0438   -2.0015    1.0490 C   0  0  0  0  0  0  0  0  0  0  0  0
   -1.3008   -0.0721    0.0593 C   0  0  0  0  0  0  0  0  0  0  0  0
   -2.6008   -0.6215    0.0715 C   0  0  0  0  0  0  0  0  0  0  0  0
   -3.7224    0.1961    0.2114 C   0  0  0  0  0  0  0  0  0  0  0  0
   -5.4493   -0.5729    0.2230 Br  0  0  0  0  0  0  0  0  0  0  0  0
   -3.5794    1.5719    0.3349 C   0  0  0  0  0  0  0  0  0  0  0  0
   -2.3018    2.1300    0.3227 C   0  0  0  0  0  0  0  0  0  0  0  0
   -1.1633    1.3189    0.2038 C   0  0  0  0  0  0  0  0  0  0  0  0
    0.1023    1.9105    0.1435 N   0  0  0  0  0  0  0  0  0  0  0  0
    1.3027    1.1967    0.0735 C   0  0  0  0  0  0  0  0  0  0  0  0
    2.5217    1.8909    0.0679 C   0  0  0  0  0  0  0  0  0  0  0  0
    3.7323    1.2094   -0.0512 C   0  0  0  0  0  0  0  0  0  0  0  0
    3.7251   -0.1731   -0.1819 C   0  0  0  0  0  0  0  0  0  0  0  0
    5.3594   -1.1087   -0.3480 Br  0  0  0  0  0  0  0  0  0  0  0  0
    2.5199   -0.8753   -0.1989 C   0  0  0  0  0  0  0  0  0  0  0  0
    1.2863   -0.2004   -0.0773 C   0  0  0  0  0  0  0  0  0  0  0  0
   -0.1705   -0.9918   -2.2973 H   0  0  0  0  0  0  0  0  0  0  0  0
   -1.0748   -2.3054   -1.5368 H   0  0  0  0  0  0  0  0  0  0  0  0
    0.6747   -2.3921   -1.6293 H   0  0  0  0  0  0  0  0  0  0  0  0
    0.0324   -1.5023    2.0231 H   0  0  0  0  0  0  0  0  0  0  0  0
    0.7959   -2.7010    0.9736 H   0  0  0  0  0  0  0  0  0  0  0  0
   -0.9517   -2.6144    1.0659 H   0  0  0  0  0  0  0  0  0  0  0  0
   -2.7430   -1.6941   -0.0335 H   0  0  0  0  0  0  0  0  0  0  0  0
   -4.4479    2.2167    0.4339 H   0  0  0  0  0  0  0  0  0  0  0  0
   -2.1986    3.2090    0.4040 H   0  0  0  0  0  0  0  0  0  0  0  0
    0.1668    2.8662    0.4673 H   0  0  0  0  0  0  0  0  0  0  0  0
    2.5346    2.9743    0.1539 H   0  0  0  0  0  0  0  0  0  0  0  0
    4.6657    1.7649   -0.0474 H   0  0  0  0  0  0  0  0  0  0  0  0
    2.5437   -1.9562   -0.3127 H   0  0  0  0  0  0  0  0  0  0  0  0
  1  2  1  0
  2  3  1  0
  2  4  1  0
  4  5  2  0
  5  6  1  0
  6  7  1  0
  6  8  2  0
  8  9  1  0
  9 10  2  0
 10 11  1  0
 11 12  1  0
 12 13  2  0
 13 14  1  0
 14 15  2  0
 15 16  1  0
 15 17  1  0
 17 18  2  0
 18  2  1  0
 10  4  1  0
 18 12  1  0
  1 19  1  0
  1 20  1  0
  1 21  1  0
  3 22  1  0
  3 23  1  0
  3 24  1  0
  5 25  1  0
  8 26  1  0
  9 27  1  0
 11 28  1  0
 13 29  1  0
 14 30  1  0
 17 31  1  0
M  END
