
     RDKit          3D

 22 24  0  0  0  0  0  0  0  0999 V2000
   -0.5091   -2.9317   -0.3181 O   0  0  0  0  0  0  0  0  0  0  0  0
   -0.3027   -1.7431   -0.2012 C   0  0  0  0  0  0  0  0  0  0  0  0
   -1.3164   -0.6676   -0.1791 C   0  0  0  0  0  0  0  0  0  0  0  0
   -2.6894   -0.7701   -0.2835 C   0  0  0  0  0  0  0  0  0  0  0  0
   -3.4072    0.4221   -0.2308 C   0  0  0  0  0  0  0  0  0  0  0  0
   -5.2936    0.3784   -0.3658 Br  0  0  0  0  0  0  0  0  0  0  0  0
   -2.7559    1.6622   -0.0785 C   0  0  0  0  0  0  0  0  0  0  0  0
   -1.3591    1.7343    0.0249 C   0  0  0  0  0  0  0  0  0  0  0  0
   -0.6374    0.5546   -0.0265 C   0  0  0  0  0  0  0  0  0  0  0  0
    0.7858    0.2999    0.0507 C   0  0  0  0  0  0  0  0  0  0  0  0
    1.8613    1.1579    0.1995 C   0  0  0  0  0  0  0  0  0  0  0  0
    3.1496    0.6052    0.2415 C   0  0  0  0  0  0  0  0  0  0  0  0
    3.3440   -0.7862    0.1351 C   0  0  0  0  0  0  0  0  0  0  0  0
    5.1019   -1.4822    0.1975 Br  0  0  0  0  0  0  0  0  0  0  0  0
    2.2679   -1.6574   -0.0149 C   0  0  0  0  0  0  0  0  0  0  0  0
    1.0122   -1.0843   -0.0529 C   0  0  0  0  0  0  0  0  0  0  0  0
   -3.1680   -1.7361   -0.4001 H   0  0  0  0  0  0  0  0  0  0  0  0
   -3.3380    2.5812   -0.0398 H   0  0  0  0  0  0  0  0  0  0  0  0
   -0.8695    2.6959    0.1419 H   0  0  0  0  0  0  0  0  0  0  0  0
    1.7251    2.2316    0.2825 H   0  0  0  0  0  0  0  0  0  0  0  0
    4.0062    1.2667    0.3582 H   0  0  0  0  0  0  0  0  0  0  0  0
    2.3923   -2.7313   -0.0988 H   0  0  0  0  0  0  0  0  0  0  0  0
  1  2  2  0
  2  3  1  0
  3  4  2  0
  4  5  1  0
  5  6  1  0
  5  7  2  0
  7  8  1  0
  8  9  2  0
  9 10  1  0
 10 11  2  0
 11 12  1  0
 12 13  2  0
 13 14  1  0
 13 15  1  0
 15 16  2  0
 16  2  1  0
  9  3  1  0
 16 10  1  0
  4 17  1  0
  7 18  1  0
  8 19  1  0
 11 20  1  0
 12 21  1  0
 15 22  1  0
M  END
