
     RDKit          3D

 23 25  0  0  0  0  0  0  0  0999 V2000
    5.2816   -0.4797   -0.2629 Br  0  0  0  0  0  0  0  0  0  0  0  0
    3.4167   -0.1622   -0.3167 C   0  0  0  0  0  0  0  0  0  0  0  0
    2.9084    0.8038   -1.2014 C   0  0  0  0  0  0  0  0  0  0  0  0
    1.5337    1.0596   -1.2625 C   0  0  0  0  0  0  0  0  0  0  0  0
    0.6917    0.3387   -0.4318 C   0  0  0  0  0  0  0  0  0  0  0  0
    1.2147   -0.6301    0.4536 C   0  0  0  0  0  0  0  0  0  0  0  0
    2.5736   -0.8917    0.5227 C   0  0  0  0  0  0  0  0  0  0  0  0
    0.0973   -1.2754    1.2481 C   0  0  0  0  0  0  0  0  0  0  0  0
   -1.1240   -0.5583    0.7093 C   0  0  0  0  0  0  0  0  0  0  0  0
   -2.4492   -0.7376    1.0718 C   0  0  0  0  0  0  0  0  0  0  0  0
   -3.4079    0.0472    0.4294 C   0  0  0  0  0  0  0  0  0  0  0  0
   -5.2329   -0.1572    0.8866 Br  0  0  0  0  0  0  0  0  0  0  0  0
   -3.0450    0.9864   -0.5506 C   0  0  0  0  0  0  0  0  0  0  0  0
   -1.7030    1.1589   -0.9087 C   0  0  0  0  0  0  0  0  0  0  0  0
   -0.7468    0.3829   -0.2746 C   0  0  0  0  0  0  0  0  0  0  0  0
    3.5814    1.3622   -1.8478 H   0  0  0  0  0  0  0  0  0  0  0  0
    1.1470    1.8066   -1.9476 H   0  0  0  0  0  0  0  0  0  0  0  0
    2.9634   -1.6379    1.2066 H   0  0  0  0  0  0  0  0  0  0  0  0
    0.2202   -1.0803    2.3174 H   0  0  0  0  0  0  0  0  0  0  0  0
    0.0413   -2.3471    1.0368 H   0  0  0  0  0  0  0  0  0  0  0  0
   -2.7268   -1.4634    1.8286 H   0  0  0  0  0  0  0  0  0  0  0  0
   -3.8066    1.5888   -1.0401 H   0  0  0  0  0  0  0  0  0  0  0  0
   -1.4287    1.8856   -1.6660 H   0  0  0  0  0  0  0  0  0  0  0  0
  1  2  1  0
  2  3  2  0
  3  4  1  0
  4  5  2  0
  5  6  1  0
  6  7  2  0
  6  8  1  0
  8  9  1  0
  9 10  2  0
 10 11  1  0
 11 12  1  0
 11 13  2  0
 13 14  1  0
 14 15  2  0
  7  2  1  0
 15  9  1  0
 15  5  1  0
  3 16  1  0
  4 17  1  0
  7 18  1  0
  8 19  1  0
  8 20  1  0
 10 21  1  0
 13 22  1  0
 14 23  1  0
M  END
