
     RDKit          3D

 22 24  0  0  0  0  0  0  0  0999 V2000
    5.2524   -0.3629   -0.7184 Br  0  0  0  0  0  0  0  0  0  0  0  0
    3.4210   -0.2309   -0.2560 C   0  0  0  0  0  0  0  0  0  0  0  0
    3.0585   -0.1727    1.0870 C   0  0  0  0  0  0  0  0  0  0  0  0
    1.7097   -0.0749    1.4506 C   0  0  0  0  0  0  0  0  0  0  0  0
    0.7196   -0.0357    0.4461 C   0  0  0  0  0  0  0  0  0  0  0  0
    1.1204   -0.0963   -0.8883 C   0  0  0  0  0  0  0  0  0  0  0  0
    2.4638   -0.1943   -1.2741 C   0  0  0  0  0  0  0  0  0  0  0  0
   -0.0199   -0.0412   -1.6552 N   0  0  0  0  0  0  0  0  0  0  0  0
   -1.1415    0.0527   -0.8648 C   0  0  0  0  0  0  0  0  0  0  0  0
   -2.4939    0.1322   -1.2225 C   0  0  0  0  0  0  0  0  0  0  0  0
   -3.4263    0.2200   -0.1847 C   0  0  0  0  0  0  0  0  0  0  0  0
   -5.2684    0.3299   -0.6089 Br  0  0  0  0  0  0  0  0  0  0  0  0
   -3.0315    0.2284    1.1504 C   0  0  0  0  0  0  0  0  0  0  0  0
   -1.6743    0.1479    1.4858 C   0  0  0  0  0  0  0  0  0  0  0  0
   -0.7087    0.0583    0.4610 C   0  0  0  0  0  0  0  0  0  0  0  0
    3.8161   -0.2024    1.8661 H   0  0  0  0  0  0  0  0  0  0  0  0
    1.4306   -0.0297    2.4994 H   0  0  0  0  0  0  0  0  0  0  0  0
    2.7477   -0.2398   -2.3202 H   0  0  0  0  0  0  0  0  0  0  0  0
   -0.0321   -0.0663   -2.6644 H   0  0  0  0  0  0  0  0  0  0  0  0
   -2.8029    0.1258   -2.2624 H   0  0  0  0  0  0  0  0  0  0  0  0
   -3.7701    0.2972    1.9450 H   0  0  0  0  0  0  0  0  0  0  0  0
   -1.3700    0.1548    2.5285 H   0  0  0  0  0  0  0  0  0  0  0  0
  1  2  1  0
  2  3  2  0
  3  4  1  0
  4  5  2  0
  5  6  1  0
  6  7  2  0
  6  8  1  0
  8  9  1  0
  9 10  2  0
 10 11  1  0
 11 12  1  0
 11 13  2  0
 13 14  1  0
 14 15  2  0
  7  2  1  0
 15  9  1  0
 15  5  1  0
  3 16  1  0
  4 17  1  0
  7 18  1  0
  8 19  1  0
 10 20  1  0
 13 21  1  0
 14 22  1  0
M  END
