
     RDKit          3D

 26 29  0  0  0  0  0  0  0  0999 V2000
    5.1881   -0.5719    1.3737 Br  0  0  0  0  0  0  0  0  0  0  0  0
    3.3698   -0.3715    0.8922 C   0  0  0  0  0  0  0  0  0  0  0  0
    2.8608    0.9008    0.6397 C   0  0  0  0  0  0  0  0  0  0  0  0
    1.5149    1.0634    0.2819 C   0  0  0  0  0  0  0  0  0  0  0  0
    0.9777    2.3313    0.0226 C   0  0  0  0  0  0  0  0  0  0  0  0
   -0.3652    2.4794   -0.3329 C   0  0  0  0  0  0  0  0  0  0  0  0
   -1.2059    1.3633   -0.4385 C   0  0  0  0  0  0  0  0  0  0  0  0
   -2.5554    1.4979   -0.7944 C   0  0  0  0  0  0  0  0  0  0  0  0
   -3.3698    0.3715   -0.8922 C   0  0  0  0  0  0  0  0  0  0  0  0
   -5.1882    0.5719   -1.3737 Br  0  0  0  0  0  0  0  0  0  0  0  0
   -2.8608   -0.9008   -0.6397 C   0  0  0  0  0  0  0  0  0  0  0  0
   -1.5149   -1.0634   -0.2819 C   0  0  0  0  0  0  0  0  0  0  0  0
   -0.9777   -2.3313   -0.0226 C   0  0  0  0  0  0  0  0  0  0  0  0
    0.3652   -2.4794    0.3330 C   0  0  0  0  0  0  0  0  0  0  0  0
    1.2059   -1.3633    0.4385 C   0  0  0  0  0  0  0  0  0  0  0  0
    2.5554   -1.4979    0.7944 C   0  0  0  0  0  0  0  0  0  0  0  0
    0.6810   -0.0751    0.1803 C   0  0  0  0  0  0  0  0  0  0  0  0
   -0.6810    0.0751   -0.1803 C   0  0  0  0  0  0  0  0  0  0  0  0
    3.5119    1.7681    0.7211 H   0  0  0  0  0  0  0  0  0  0  0  0
    1.6014    3.2201    0.0950 H   0  0  0  0  0  0  0  0  0  0  0  0
   -0.7485    3.4792   -0.5272 H   0  0  0  0  0  0  0  0  0  0  0  0
   -2.9707    2.4827   -0.9953 H   0  0  0  0  0  0  0  0  0  0  0  0
   -3.5119   -1.7681   -0.7211 H   0  0  0  0  0  0  0  0  0  0  0  0
   -1.6014   -3.2201   -0.0950 H   0  0  0  0  0  0  0  0  0  0  0  0
    0.7485   -3.4791    0.5272 H   0  0  0  0  0  0  0  0  0  0  0  0
    2.9707   -2.4827    0.9953 H   0  0  0  0  0  0  0  0  0  0  0  0
  1  2  1  0
  2  3  2  0
  3  4  1  0
  4  5  2  0
  5  6  1  0
  6  7  2  0
  7  8  1  0
  8  9  2  0
  9 10  1  0
  9 11  1  0
 11 12  2  0
 12 13  1  0
 13 14  2  0
 14 15  1  0
 15 16  2  0
 15 17  1  0
 17 18  2  0
 16  2  1  0
 17  4  1  0
 18  7  1  0
 18 12  1  0
  3 19  1  0
  5 20  1  0
  6 21  1  0
  8 22  1  0
 11 23  1  0
 13 24  1  0
 14 25  1  0
 16 26  1  0
M  END
