
     RDKit          3D

 26 29  0  0  0  0  0  0  0  0999 V2000
   -5.3779    0.2325    0.3973 Br  0  0  0  0  0  0  0  0  0  0  0  0
   -3.4930    0.1510    0.2593 C   0  0  0  0  0  0  0  0  0  0  0  0
   -2.7307    1.2748    0.5718 C   0  0  0  0  0  0  0  0  0  0  0  0
   -1.3328    1.2278    0.4737 C   0  0  0  0  0  0  0  0  0  0  0  0
   -0.5427    2.3433    0.7819 C   0  0  0  0  0  0  0  0  0  0  0  0
    0.8493    2.2831    0.6800 C   0  0  0  0  0  0  0  0  0  0  0  0
    1.4875    1.1059    0.2671 C   0  0  0  0  0  0  0  0  0  0  0  0
    2.8836    1.0321    0.1606 C   0  0  0  0  0  0  0  0  0  0  0  0
    3.4930   -0.1510   -0.2524 C   0  0  0  0  0  0  0  0  0  0  0  0
    5.3779   -0.2325   -0.3905 Br  0  0  0  0  0  0  0  0  0  0  0  0
    2.7307   -1.2748   -0.5650 C   0  0  0  0  0  0  0  0  0  0  0  0
    1.3328   -1.2278   -0.4669 C   0  0  0  0  0  0  0  0  0  0  0  0
    0.5427   -2.3433   -0.7751 C   0  0  0  0  0  0  0  0  0  0  0  0
   -0.8493   -2.2831   -0.6732 C   0  0  0  0  0  0  0  0  0  0  0  0
   -1.4875   -1.1059   -0.2603 C   0  0  0  0  0  0  0  0  0  0  0  0
   -2.8836   -1.0321   -0.1538 C   0  0  0  0  0  0  0  0  0  0  0  0
   -0.7059    0.0305    0.0551 C   0  0  0  0  0  0  0  0  0  0  0  0
    0.7059   -0.0305   -0.0483 C   0  0  0  0  0  0  0  0  0  0  0  0
   -3.2244    2.1892    0.8924 H   0  0  0  0  0  0  0  0  0  0  0  0
   -1.0045    3.2739    1.1058 H   0  0  0  0  0  0  0  0  0  0  0  0
    1.4314    3.1686    0.9274 H   0  0  0  0  0  0  0  0  0  0  0  0
    3.4953    1.8987    0.4002 H   0  0  0  0  0  0  0  0  0  0  0  0
    3.2244   -2.1892   -0.8855 H   0  0  0  0  0  0  0  0  0  0  0  0
    1.0044   -3.2739   -1.0990 H   0  0  0  0  0  0  0  0  0  0  0  0
   -1.4314   -3.1686   -0.9205 H   0  0  0  0  0  0  0  0  0  0  0  0
   -3.4953   -1.8987   -0.3934 H   0  0  0  0  0  0  0  0  0  0  0  0
  1  2  1  0
  2  3  2  0
  3  4  1  0
  4  5  2  0
  5  6  1  0
  6  7  2  0
  7  8  1  0
  8  9  2  0
  9 10  1  0
  9 11  1  0
 11 12  2  0
 12 13  1  0
 13 14  2  0
 14 15  1  0
 15 16  2  0
 15 17  1  0
 17 18  2  0
 16  2  1  0
 17  4  1  0
 18  7  1  0
 18 12  1  0
  3 19  1  0
  5 20  1  0
  6 21  1  0
  8 22  1  0
 11 23  1  0
 13 24  1  0
 14 25  1  0
 16 26  1  0
M  END
