
     RDKit          3D

 34 37  0  0  0  0  0  0  0  0999 V2000
   -1.6263    5.0751   -0.5987 Br  0  0  0  0  0  0  0  0  0  0  0  0
   -0.5279    3.5343   -0.6143 C   0  0  0  0  0  0  0  0  0  0  0  0
    0.7941    3.6369   -1.0695 C   0  0  0  0  0  0  0  0  0  0  0  0
    1.6226    2.5112   -1.0922 C   0  0  0  0  0  0  0  0  0  0  0  0
    1.1093    1.2986   -0.6552 C   0  0  0  0  0  0  0  0  0  0  0  0
   -0.2222    1.1995   -0.1954 C   0  0  0  0  0  0  0  0  0  0  0  0
   -1.0497    2.3166   -0.1734 C   0  0  0  0  0  0  0  0  0  0  0  0
   -0.5387   -0.2457    0.2327 C   0  0  0  0  0  0  0  0  0  0  0  0
   -1.6715   -0.8291   -0.6373 C   0  0  0  0  0  0  0  0  0  0  0  0
   -2.4520   -1.8892    0.1266 C   0  0  0  0  0  0  0  0  0  0  0  0
   -3.0553   -1.3938    1.3196 O   0  0  0  0  0  0  0  0  0  0  0  0
   -2.3787   -0.3144    1.9598 C   0  0  0  0  0  0  0  0  0  0  0  0
   -0.8732   -0.3317    1.7363 C   0  0  0  0  0  0  0  0  0  0  0  0
    0.8093   -0.9317   -0.0581 C   0  0  0  0  0  0  0  0  0  0  0  0
    1.1672   -2.2629    0.1227 C   0  0  0  0  0  0  0  0  0  0  0  0
    2.4633   -2.6515   -0.2216 C   0  0  0  0  0  0  0  0  0  0  0  0
    2.9847   -4.4554    0.0119 Br  0  0  0  0  0  0  0  0  0  0  0  0
    3.3863   -1.7300   -0.7360 C   0  0  0  0  0  0  0  0  0  0  0  0
    3.0236   -0.3918   -0.9144 C   0  0  0  0  0  0  0  0  0  0  0  0
    1.7368   -0.0003   -0.5740 C   0  0  0  0  0  0  0  0  0  0  0  0
    1.1853    4.5927   -1.4097 H   0  0  0  0  0  0  0  0  0  0  0  0
    2.6447    2.5962   -1.4464 H   0  0  0  0  0  0  0  0  0  0  0  0
   -2.0763    2.2496    0.1688 H   0  0  0  0  0  0  0  0  0  0  0  0
   -1.2878   -1.2453   -1.5769 H   0  0  0  0  0  0  0  0  0  0  0  0
   -2.3828   -0.0401   -0.9143 H   0  0  0  0  0  0  0  0  0  0  0  0
   -3.2552   -2.2866   -0.5029 H   0  0  0  0  0  0  0  0  0  0  0  0
   -1.8163   -2.7381    0.3955 H   0  0  0  0  0  0  0  0  0  0  0  0
   -2.8246    0.6211    1.6087 H   0  0  0  0  0  0  0  0  0  0  0  0
   -2.5974   -0.3830    3.0306 H   0  0  0  0  0  0  0  0  0  0  0  0
   -0.3970    0.4768    2.3045 H   0  0  0  0  0  0  0  0  0  0  0  0
   -0.4943   -1.2723    2.1570 H   0  0  0  0  0  0  0  0  0  0  0  0
    0.4657   -2.9843    0.5268 H   0  0  0  0  0  0  0  0  0  0  0  0
    4.3920   -2.0486   -0.9991 H   0  0  0  0  0  0  0  0  0  0  0  0
    3.7423    0.3173   -1.3120 H   0  0  0  0  0  0  0  0  0  0  0  0
  1  2  1  0
  2  3  2  0
  3  4  1  0
  4  5  2  0
  5  6  1  0
  6  7  2  0
  6  8  1  0
  8  9  1  0
  9 10  1  0
 10 11  1  0
 11 12  1  0
 12 13  1  0
  8 14  1  0
 14 15  2  0
 15 16  1  0
 16 17  1  0
 16 18  2  0
 18 19  1  0
 19 20  2  0
  7  2  1  0
 13  8  1  0
 20 14  1  0
 20  5  1  0
  3 21  1  0
  4 22  1  0
  7 23  1  0
  9 24  1  0
  9 25  1  0
 10 26  1  0
 10 27  1  0
 12 28  1  0
 12 29  1  0
 13 30  1  0
 13 31  1  0
 15 32  1  0
 18 33  1  0
 19 34  1  0
M  END
