
     RDKit          3D

 26 29  0  0  0  0  0  0  0  0999 V2000
    5.3728    0.4866   -0.1655 Br  0  0  0  0  0  0  0  0  0  0  0  0
    3.4897    0.3161   -0.1075 C   0  0  0  0  0  0  0  0  0  0  0  0
    2.6989    1.4561    0.0220 C   0  0  0  0  0  0  0  0  0  0  0  0
    1.3020    1.3437    0.0662 C   0  0  0  0  0  0  0  0  0  0  0  0
    0.4837    2.4737    0.1959 C   0  0  0  0  0  0  0  0  0  0  0  0
   -0.9070    2.3477    0.2387 C   0  0  0  0  0  0  0  0  0  0  0  0
   -1.5156    1.0885    0.1530 C   0  0  0  0  0  0  0  0  0  0  0  0
   -2.9100    0.9480    0.1947 C   0  0  0  0  0  0  0  0  0  0  0  0
   -3.4897   -0.3161    0.1075 C   0  0  0  0  0  0  0  0  0  0  0  0
   -5.3728   -0.4866    0.1655 Br  0  0  0  0  0  0  0  0  0  0  0  0
   -2.6989   -1.4561   -0.0220 C   0  0  0  0  0  0  0  0  0  0  0  0
   -1.3020   -1.3437   -0.0662 C   0  0  0  0  0  0  0  0  0  0  0  0
   -0.4837   -2.4737   -0.1959 C   0  0  0  0  0  0  0  0  0  0  0  0
    0.9070   -2.3478   -0.2387 C   0  0  0  0  0  0  0  0  0  0  0  0
    1.5156   -1.0885   -0.1530 C   0  0  0  0  0  0  0  0  0  0  0  0
    2.9100   -0.9480   -0.1947 C   0  0  0  0  0  0  0  0  0  0  0  0
    0.7052    0.0639   -0.0217 C   0  0  0  0  0  0  0  0  0  0  0  0
   -0.7052   -0.0639    0.0217 C   0  0  0  0  0  0  0  0  0  0  0  0
    3.1696    2.4341    0.0886 H   0  0  0  0  0  0  0  0  0  0  0  0
    0.9220    3.4673    0.2651 H   0  0  0  0  0  0  0  0  0  0  0  0
   -1.5115    3.2469    0.3401 H   0  0  0  0  0  0  0  0  0  0  0  0
   -3.5437    1.8261    0.2954 H   0  0  0  0  0  0  0  0  0  0  0  0
   -3.1697   -2.4341   -0.0886 H   0  0  0  0  0  0  0  0  0  0  0  0
   -0.9220   -3.4673   -0.2651 H   0  0  0  0  0  0  0  0  0  0  0  0
    1.5115   -3.2469   -0.3401 H   0  0  0  0  0  0  0  0  0  0  0  0
    3.5437   -1.8261   -0.2954 H   0  0  0  0  0  0  0  0  0  0  0  0
  1  2  1  0
  2  3  2  0
  3  4  1  0
  4  5  2  0
  5  6  1  0
  6  7  2  0
  7  8  1  0
  8  9  2  0
  9 10  1  0
  9 11  1  0
 11 12  2  0
 12 13  1  0
 13 14  2  0
 14 15  1  0
 15 16  2  0
 15 17  1  0
 17 18  2  0
 16  2  1  0
 17  4  1  0
 18  7  1  0
 18 12  1  0
  3 19  1  0
  5 20  1  0
  6 21  1  0
  8 22  1  0
 11 23  1  0
 13 24  1  0
 14 25  1  0
 16 26  1  0
M  END
