
     RDKit          3D

 22 24  0  0  0  0  0  0  0  0999 V2000
   -0.4066    2.9610    0.0661 O   0  0  0  0  0  0  0  0  0  0  0  0
   -0.2417    1.7605    0.0393 C   0  0  0  0  0  0  0  0  0  0  0  0
    1.0507    1.0443    0.0782 C   0  0  0  0  0  0  0  0  0  0  0  0
    2.3272    1.5658    0.1518 C   0  0  0  0  0  0  0  0  0  0  0  0
    3.3733    0.6467    0.1735 C   0  0  0  0  0  0  0  0  0  0  0  0
    5.1566    1.2702    0.2733 Br  0  0  0  0  0  0  0  0  0  0  0  0
    3.1301   -0.7401    0.1227 C   0  0  0  0  0  0  0  0  0  0  0  0
    1.8217   -1.2398    0.0482 C   0  0  0  0  0  0  0  0  0  0  0  0
    0.7757   -0.3339    0.0261 C   0  0  0  0  0  0  0  0  0  0  0  0
   -0.6571   -0.5291   -0.0453 C   0  0  0  0  0  0  0  0  0  0  0  0
   -1.4206   -1.6814   -0.1134 C   0  0  0  0  0  0  0  0  0  0  0  0
   -2.8156   -1.5499   -0.1738 C   0  0  0  0  0  0  0  0  0  0  0  0
   -3.4238   -0.2790   -0.1653 C   0  0  0  0  0  0  0  0  0  0  0  0
   -5.3097   -0.1553   -0.2484 Br  0  0  0  0  0  0  0  0  0  0  0  0
   -2.6638    0.8860   -0.0971 C   0  0  0  0  0  0  0  0  0  0  0  0
   -1.2937    0.7250   -0.0387 C   0  0  0  0  0  0  0  0  0  0  0  0
    2.4893    2.6372    0.1899 H   0  0  0  0  0  0  0  0  0  0  0  0
    3.9639   -1.4396    0.1410 H   0  0  0  0  0  0  0  0  0  0  0  0
    1.6478   -2.3105    0.0096 H   0  0  0  0  0  0  0  0  0  0  0  0
   -0.9644   -2.6662   -0.1206 H   0  0  0  0  0  0  0  0  0  0  0  0
   -3.4302   -2.4467   -0.2276 H   0  0  0  0  0  0  0  0  0  0  0  0
   -3.1089    1.8748   -0.0892 H   0  0  0  0  0  0  0  0  0  0  0  0
  1  2  2  0
  2  3  1  0
  3  4  2  0
  4  5  1  0
  5  6  1  0
  5  7  2  0
  7  8  1  0
  8  9  2  0
  9 10  1  0
 10 11  2  0
 11 12  1  0
 12 13  2  0
 13 14  1  0
 13 15  1  0
 15 16  2  0
 16  2  1  0
  9  3  1  0
 16 10  1  0
  4 17  1  0
  7 18  1  0
  8 19  1  0
 11 20  1  0
 12 21  1  0
 15 22  1  0
M  END
