
     RDKit          3D

 41 46  0  0  0  0  0  0  0  0999 V2000
   -0.4403    3.8365   -3.8929 Br  0  0  0  0  0  0  0  0  0  0  0  0
   -1.1047    2.5211   -2.7065 C   0  0  0  0  0  0  0  0  0  0  0  0
   -2.4818    2.2466   -2.6839 C   0  0  0  0  0  0  0  0  0  0  0  0
   -3.0011    1.2788   -1.8165 C   0  0  0  0  0  0  0  0  0  0  0  0
   -2.1267    0.5998   -0.9829 C   0  0  0  0  0  0  0  0  0  0  0  0
   -0.7415    0.8828   -1.0124 C   0  0  0  0  0  0  0  0  0  0  0  0
   -0.2186    1.8423   -1.8709 C   0  0  0  0  0  0  0  0  0  0  0  0
   -0.0063    0.0002   -0.0015 C   0  0  0  0  0  0  0  0  0  0  0  0
    1.0861   -0.8652   -0.6322 C   0  0  0  0  0  0  0  0  0  0  0  0
    0.9764   -1.8046   -1.6494 C   0  0  0  0  0  0  0  0  0  0  0  0
    2.1315   -2.4734   -2.0568 C   0  0  0  0  0  0  0  0  0  0  0  0
    3.3694   -2.2009   -1.4520 C   0  0  0  0  0  0  0  0  0  0  0  0
    3.4755   -1.2542   -0.4280 C   0  0  0  0  0  0  0  0  0  0  0  0
    2.3305   -0.5886   -0.0214 C   0  0  0  0  0  0  0  0  0  0  0  0
    2.1452    0.4247    0.9979 C   0  0  0  0  0  0  0  0  0  0  0  0
    3.0605    1.0148    1.8542 C   0  0  0  0  0  0  0  0  0  0  0  0
    2.6045    1.9820    2.7555 C   0  0  0  0  0  0  0  0  0  0  0  0
    1.2495    2.3495    2.7945 C   0  0  0  0  0  0  0  0  0  0  0  0
    0.3250    1.7569    1.9332 C   0  0  0  0  0  0  0  0  0  0  0  0
    0.7822    0.7968    1.0397 C   0  0  0  0  0  0  0  0  0  0  0  0
   -1.1551   -0.8134    0.5984 C   0  0  0  0  0  0  0  0  0  0  0  0
   -1.1051   -1.7938    1.5820 C   0  0  0  0  0  0  0  0  0  0  0  0
   -2.3035   -2.3962    1.9629 C   0  0  0  0  0  0  0  0  0  0  0  0
   -2.2865   -3.7364    3.2981 Br  0  0  0  0  0  0  0  0  0  0  0  0
   -3.5235   -2.0266    1.3737 C   0  0  0  0  0  0  0  0  0  0  0  0
   -3.5660   -1.0383    0.3837 C   0  0  0  0  0  0  0  0  0  0  0  0
   -2.3790   -0.4348   -0.0003 C   0  0  0  0  0  0  0  0  0  0  0  0
   -3.1577    2.7864   -3.3431 H   0  0  0  0  0  0  0  0  0  0  0  0
   -4.0665    1.0734   -1.8059 H   0  0  0  0  0  0  0  0  0  0  0  0
    0.8466    2.0516   -1.8853 H   0  0  0  0  0  0  0  0  0  0  0  0
    0.0201   -2.0163   -2.1179 H   0  0  0  0  0  0  0  0  0  0  0  0
    2.0737   -3.2139   -2.8513 H   0  0  0  0  0  0  0  0  0  0  0  0
    4.2569   -2.7341   -1.7854 H   0  0  0  0  0  0  0  0  0  0  0  0
    4.4378   -1.0534    0.0306 H   0  0  0  0  0  0  0  0  0  0  0  0
    4.1099    0.7402    1.8346 H   0  0  0  0  0  0  0  0  0  0  0  0
    3.3076    2.4569    3.4361 H   0  0  0  0  0  0  0  0  0  0  0  0
    0.9182    3.1043    3.5041 H   0  0  0  0  0  0  0  0  0  0  0  0
   -0.7221    2.0420    1.9645 H   0  0  0  0  0  0  0  0  0  0  0  0
   -0.1598   -2.0767    2.0350 H   0  0  0  0  0  0  0  0  0  0  0  0
   -4.4482   -2.5077    1.6838 H   0  0  0  0  0  0  0  0  0  0  0  0
   -4.5132   -0.7591   -0.0660 H   0  0  0  0  0  0  0  0  0  0  0  0
  1  2  1  0
  2  3  2  0
  3  4  1  0
  4  5  2  0
  5  6  1  0
  6  7  2  0
  6  8  1  0
  8  9  1  0
  9 10  2  0
 10 11  1  0
 11 12  2  0
 12 13  1  0
 13 14  2  0
 14 15  1  0
 15 16  2  0
 16 17  1  0
 17 18  2  0
 18 19  1  0
 19 20  2  0
  8 21  1  0
 21 22  2  0
 22 23  1  0
 23 24  1  0
 23 25  2  0
 25 26  1  0
 26 27  2  0
  7  2  1  0
 20  8  1  0
 27 21  1  0
 27  5  1  0
 14  9  1  0
 20 15  1  0
  3 28  1  0
  4 29  1  0
  7 30  1  0
 10 31  1  0
 11 32  1  0
 12 33  1  0
 13 34  1  0
 16 35  1  0
 17 36  1  0
 18 37  1  0
 19 38  1  0
 22 39  1  0
 25 40  1  0
 26 41  1  0
M  END
