
     RDKit          3D

 17 18  0  0  0  0  0  0  0  0999 V2000
   -3.9327    1.9229    0.2768 Br  0  0  0  0  0  0  0  0  0  0  0  0
   -2.3620    0.8706    0.1327 C   0  0  0  0  0  0  0  0  0  0  0  0
   -2.4871   -0.4956   -0.0266 C   0  0  0  0  0  0  0  0  0  0  0  0
   -1.3234   -1.2470   -0.1300 C   0  0  0  0  0  0  0  0  0  0  0  0
   -0.0744   -0.6155   -0.0716 C   0  0  0  0  0  0  0  0  0  0  0  0
    1.1117   -1.3637   -0.1748 C   0  0  0  0  0  0  0  0  0  0  0  0
    2.3527   -0.7367   -0.1168 C   0  0  0  0  0  0  0  0  0  0  0  0
    2.4152    0.6414    0.0447 C   0  0  0  0  0  0  0  0  0  0  0  0
    1.2328    1.3857    0.1475 C   0  0  0  0  0  0  0  0  0  0  0  0
    1.4087    3.2703    0.3672 Br  0  0  0  0  0  0  0  0  0  0  0  0
   -0.0344    0.7881    0.0933 C   0  0  0  0  0  0  0  0  0  0  0  0
   -1.1753    1.5094    0.1928 N   0  0  0  0  0  0  0  0  0  0  0  0
   -3.4591   -0.9736   -0.0705 H   0  0  0  0  0  0  0  0  0  0  0  0
   -1.3974   -2.3246   -0.2560 H   0  0  0  0  0  0  0  0  0  0  0  0
    1.0741   -2.4441   -0.3016 H   0  0  0  0  0  0  0  0  0  0  0  0
    3.2664   -1.3205   -0.1973 H   0  0  0  0  0  0  0  0  0  0  0  0
    3.3839    1.1330    0.0902 H   0  0  0  0  0  0  0  0  0  0  0  0
  1  2  1  0
  2  3  2  0
  3  4  1  0
  4  5  2  0
  5  6  1  0
  6  7  2  0
  7  8  1  0
  8  9  2  0
  9 10  1  0
  9 11  1  0
 11 12  2  0
 12  2  1  0
 11  5  1  0
  3 13  1  0
  4 14  1  0
  6 15  1  0
  7 16  1  0
  8 17  1  0
M  END
