
     RDKit          3D

 21 23  0  0  0  0  0  0  0  0999 V2000
   -4.4043    1.7660    1.1145 Br  0  0  0  0  0  0  0  0  0  0  0  0
   -3.0855    0.6844    0.2974 C   0  0  0  0  0  0  0  0  0  0  0  0
   -3.4649   -0.3006   -0.6010 C   0  0  0  0  0  0  0  0  0  0  0  0
   -2.4979   -1.1039   -1.2090 C   0  0  0  0  0  0  0  0  0  0  0  0
   -1.1388   -0.8974   -0.8958 C   0  0  0  0  0  0  0  0  0  0  0  0
    0.2001   -1.7651   -1.5239 S   0  0  0  0  0  0  0  0  0  0  0  0
    1.3376   -0.8563   -0.6182 C   0  0  0  0  0  0  0  0  0  0  0  0
    2.7383   -1.0170   -0.6221 C   0  0  0  0  0  0  0  0  0  0  0  0
    3.5199   -0.1848    0.1819 C   0  0  0  0  0  0  0  0  0  0  0  0
    2.9190    0.7840    0.9704 C   0  0  0  0  0  0  0  0  0  0  0  0
    3.9882    1.9052    2.0551 Br  0  0  0  0  0  0  0  0  0  0  0  0
    1.5311    0.9437    0.9746 C   0  0  0  0  0  0  0  0  0  0  0  0
    0.7102    0.1119    0.1672 C   0  0  0  0  0  0  0  0  0  0  0  0
   -0.7329    0.0880    0.0054 C   0  0  0  0  0  0  0  0  0  0  0  0
   -1.7389    0.8895    0.6081 C   0  0  0  0  0  0  0  0  0  0  0  0
   -4.5136   -0.4584   -0.8412 H   0  0  0  0  0  0  0  0  0  0  0  0
   -2.7916   -1.8773   -1.9139 H   0  0  0  0  0  0  0  0  0  0  0  0
    3.2059   -1.7778   -1.2417 H   0  0  0  0  0  0  0  0  0  0  0  0
    4.6004   -0.3072    0.1803 H   0  0  0  0  0  0  0  0  0  0  0  0
    1.0733    1.7074    1.5977 H   0  0  0  0  0  0  0  0  0  0  0  0
   -1.4556    1.6655    1.3143 H   0  0  0  0  0  0  0  0  0  0  0  0
  1  2  1  0
  2  3  2  0
  3  4  1  0
  4  5  2  0
  5  6  1  0
  6  7  1  0
  7  8  2  0
  8  9  1  0
  9 10  2  0
 10 11  1  0
 10 12  1  0
 12 13  2  0
 13 14  1  0
 14 15  2  0
 15  2  1  0
 14  5  1  0
 13  7  1  0
  3 16  1  0
  4 17  1  0
  8 18  1  0
  9 19  1  0
 12 20  1  0
 15 21  1  0
M  END
