
     RDKit          3D

 21 23  0  0  0  0  0  0  0  0999 V2000
    4.4861    1.8462    0.4746 Br  0  0  0  0  0  0  0  0  0  0  0  0
    3.1167    0.5762    0.1769 C   0  0  0  0  0  0  0  0  0  0  0  0
    3.4495   -0.7401   -0.1024 C   0  0  0  0  0  0  0  0  0  0  0  0
    2.4449   -1.6845   -0.3236 C   0  0  0  0  0  0  0  0  0  0  0  0
    1.0961   -1.2792   -0.2585 C   0  0  0  0  0  0  0  0  0  0  0  0
   -0.2833   -2.2697   -0.4959 S   0  0  0  0  0  0  0  0  0  0  0  0
   -1.3776   -0.9757   -0.2342 C   0  0  0  0  0  0  0  0  0  0  0  0
   -2.7854   -1.0427   -0.2723 C   0  0  0  0  0  0  0  0  0  0  0  0
   -3.5274    0.1159   -0.0340 C   0  0  0  0  0  0  0  0  0  0  0  0
   -2.8809    1.3121    0.2357 C   0  0  0  0  0  0  0  0  0  0  0  0
   -3.8968    2.8747    0.5568 Br  0  0  0  0  0  0  0  0  0  0  0  0
   -1.4860    1.3790    0.2735 C   0  0  0  0  0  0  0  0  0  0  0  0
   -0.7047    0.2170    0.0352 C   0  0  0  0  0  0  0  0  0  0  0  0
    0.7368    0.0401    0.0210 C   0  0  0  0  0  0  0  0  0  0  0  0
    1.7803    0.9783    0.2415 C   0  0  0  0  0  0  0  0  0  0  0  0
    4.4903   -1.0507   -0.1522 H   0  0  0  0  0  0  0  0  0  0  0  0
    2.7019   -2.7175   -0.5428 H   0  0  0  0  0  0  0  0  0  0  0  0
   -3.2887   -1.9825   -0.4841 H   0  0  0  0  0  0  0  0  0  0  0  0
   -4.6132    0.0663   -0.0629 H   0  0  0  0  0  0  0  0  0  0  0  0
   -0.9923    2.3235    0.4862 H   0  0  0  0  0  0  0  0  0  0  0  0
    1.5337    2.0136    0.4614 H   0  0  0  0  0  0  0  0  0  0  0  0
  1  2  1  0
  2  3  2  0
  3  4  1  0
  4  5  2  0
  5  6  1  0
  6  7  1  0
  7  8  2  0
  8  9  1  0
  9 10  2  0
 10 11  1  0
 10 12  1  0
 12 13  2  0
 13 14  1  0
 14 15  2  0
 15  2  1  0
 14  5  1  0
 13  7  1  0
  3 16  1  0
  4 17  1  0
  8 18  1  0
  9 19  1  0
 12 20  1  0
 15 21  1  0
M  END
