
     RDKit          3D

 22 24  0  0  0  0  0  0  0  0999 V2000
    3.7759    2.9457   -1.1421 Br  0  0  0  0  0  0  0  0  0  0  0  0
    2.7994    1.4018   -0.6345 C   0  0  0  0  0  0  0  0  0  0  0  0
    3.4872    0.2329   -0.3798 C   0  0  0  0  0  0  0  0  0  0  0  0
    2.7512   -0.8841   -0.0098 C   0  0  0  0  0  0  0  0  0  0  0  0
    1.3565   -0.8008    0.0942 C   0  0  0  0  0  0  0  0  0  0  0  0
    0.6132   -1.9244    0.4665 C   0  0  0  0  0  0  0  0  0  0  0  0
   -0.7677   -1.8396    0.5689 C   0  0  0  0  0  0  0  0  0  0  0  0
   -1.4153   -0.6306    0.2996 C   0  0  0  0  0  0  0  0  0  0  0  0
   -2.8097   -0.5426    0.4023 C   0  0  0  0  0  0  0  0  0  0  0  0
   -3.4506    0.6591    0.1344 C   0  0  0  0  0  0  0  0  0  0  0  0
   -2.6706    1.7378   -0.2291 C   0  0  0  0  0  0  0  0  0  0  0  0
   -3.5158    3.3936   -0.6017 Br  0  0  0  0  0  0  0  0  0  0  0  0
   -1.3280    1.6826   -0.3360 N   0  0  0  0  0  0  0  0  0  0  0  0
   -0.6804    0.5196   -0.0792 C   0  0  0  0  0  0  0  0  0  0  0  0
    0.7195    0.4336   -0.1830 C   0  0  0  0  0  0  0  0  0  0  0  0
    1.4591    1.5114   -0.5426 N   0  0  0  0  0  0  0  0  0  0  0  0
    4.5668    0.1817   -0.4639 H   0  0  0  0  0  0  0  0  0  0  0  0
    3.2723   -1.8163    0.1958 H   0  0  0  0  0  0  0  0  0  0  0  0
    1.1029   -2.8726    0.6794 H   0  0  0  0  0  0  0  0  0  0  0  0
   -1.3325   -2.7230    0.8599 H   0  0  0  0  0  0  0  0  0  0  0  0
   -3.4046   -1.4062    0.6907 H   0  0  0  0  0  0  0  0  0  0  0  0
   -4.5290    0.7403    0.2103 H   0  0  0  0  0  0  0  0  0  0  0  0
  1  2  1  0
  2  3  2  0
  3  4  1  0
  4  5  2  0
  5  6  1  0
  6  7  2  0
  7  8  1  0
  8  9  2  0
  9 10  1  0
 10 11  2  0
 11 12  1  0
 11 13  1  0
 13 14  2  0
 14 15  1  0
 15 16  2  0
 16  2  1  0
 15  5  1  0
 14  8  1  0
  3 17  1  0
  4 18  1  0
  6 19  1  0
  7 20  1  0
  9 21  1  0
 10 22  1  0
M  END
