
     RDKit          3D

 15 15  0  0  0  0  0  0  0  0999 V2000
   -1.5805    2.6097   -0.8846 N   0  0  0  0  0  0  0  0  0  0  0  0
   -1.8006    1.4989   -0.6303 C   0  0  0  0  0  0  0  0  0  0  0  0
   -2.0667    0.1337   -0.3325 C   0  0  0  0  0  0  0  0  0  0  0  0
   -3.4189   -0.3073   -0.4219 C   0  0  0  0  0  0  0  0  0  0  0  0
   -4.5118   -0.6906   -0.4897 N   0  0  0  0  0  0  0  0  0  0  0  0
   -1.1268   -0.7526    0.0521 C   0  0  0  0  0  0  0  0  0  0  0  0
    0.2670   -0.4792    0.2014 C   0  0  0  0  0  0  0  0  0  0  0  0
    1.1298    0.3572   -0.4927 C   0  0  0  0  0  0  0  0  0  0  0  0
    2.4710    0.3163   -0.0006 C   0  0  0  0  0  0  0  0  0  0  0  0
    2.5888   -0.5644    1.0404 C   0  0  0  0  0  0  0  0  0  0  0  0
    4.2306   -0.8990    1.9586 Br  0  0  0  0  0  0  0  0  0  0  0  0
    1.1374   -1.3374    1.4282 S   0  0  0  0  0  0  0  0  0  0  0  0
   -1.4453   -1.7661    0.3035 H   0  0  0  0  0  0  0  0  0  0  0  0
    0.8359    0.9801   -1.3300 H   0  0  0  0  0  0  0  0  0  0  0  0
    3.2900    0.9007   -0.4020 H   0  0  0  0  0  0  0  0  0  0  0  0
  1  2  3  0
  2  3  1  0
  3  4  1  0
  4  5  3  0
  3  6  2  3
  6  7  1  0
  7  8  2  0
  8  9  1  0
  9 10  2  0
 10 11  1  0
 10 12  1  0
 12  7  1  0
  6 13  1  0
  8 14  1  0
  9 15  1  0
M  END
