
     RDKit          3D

 19 20  0  0  0  0  0  0  0  0999 V2000
   -0.6486   -0.9504   -0.6956 C   0  0  0  0  0  0  0  0  0  0  0  0
    0.1276   -0.2091    0.2194 C   0  0  0  0  0  0  0  0  0  0  0  0
   -0.5726    0.7655    0.9924 C   0  0  0  0  0  0  0  0  0  0  0  0
   -0.0459    1.5669    1.9355 N   0  0  0  0  0  0  0  0  0  0  0  0
   -1.2849    2.5099    2.5086 S   0  0  0  0  0  0  0  0  0  0  0  0
   -2.5484    1.9469    1.5973 N   0  0  0  0  0  0  0  0  0  0  0  0
   -2.0567    0.9891    0.7925 C   0  0  0  0  0  0  0  0  0  0  0  0
   -2.7698    0.2209   -0.1638 C   0  0  0  0  0  0  0  0  0  0  0  0
   -2.0356   -0.7382   -0.8841 C   0  0  0  0  0  0  0  0  0  0  0  0
   -4.6173    0.4351   -0.4759 Br  0  0  0  0  0  0  0  0  0  0  0  0
    1.5589   -0.4151    0.4708 C   0  0  0  0  0  0  0  0  0  0  0  0
    2.5457   -0.4762   -0.4464 C   0  0  0  0  0  0  0  0  0  0  0  0
    2.3094   -0.3398   -1.8432 C   0  0  0  0  0  0  0  0  0  0  0  0
    2.0926   -0.2444   -2.9792 N   0  0  0  0  0  0  0  0  0  0  0  0
    3.8881   -0.6649   -0.0085 C   0  0  0  0  0  0  0  0  0  0  0  0
    4.9744   -0.8275    0.3651 N   0  0  0  0  0  0  0  0  0  0  0  0
   -0.1801   -1.7344   -1.2930 H   0  0  0  0  0  0  0  0  0  0  0  0
   -2.5512   -1.3545   -1.6226 H   0  0  0  0  0  0  0  0  0  0  0  0
    1.8145   -0.4797    1.5307 H   0  0  0  0  0  0  0  0  0  0  0  0
  1  2  2  0
  2  3  1  0
  3  4  2  0
  4  5  1  0
  5  6  1  0
  6  7  2  0
  7  8  1  0
  8  9  2  0
  8 10  1  0
  2 11  1  0
 11 12  2  3
 12 13  1  0
 13 14  3  0
 12 15  1  0
 15 16  3  0
  9  1  1  0
  7  3  1  0
  1 17  1  0
  9 18  1  0
 11 19  1  0
M  END
