
     RDKit          3D

 32 33  0  0  0  0  0  0  0  0999 V2000
   -1.1575   -1.6850    0.3503 C   0  0  0  0  0  0  0  0  0  0  0  0
   -1.6141   -0.2702    0.5987 C   0  0  0  0  0  0  0  0  0  0  0  0
   -2.9613   -0.1992    1.2488 C   0  0  0  0  0  0  0  0  0  0  0  0
   -0.6002    0.3334    1.3760 O   0  0  0  0  0  0  0  0  0  0  0  0
    0.4353    0.5043    0.3615 B   0  0  0  0  0  0  0  0  0  0  0  0
    1.9701    0.2566    0.4597 C   0  0  0  0  0  0  0  0  0  0  0  0
    2.3906   -0.8976   -0.1931 C   0  0  0  0  0  0  0  0  0  0  0  0
    3.7318   -1.2785   -0.2102 C   0  0  0  0  0  0  0  0  0  0  0  0
    4.2932   -2.8651   -1.1104 Br  0  0  0  0  0  0  0  0  0  0  0  0
    4.6447   -0.4756    0.4427 C   0  0  0  0  0  0  0  0  0  0  0  0
    4.2048    0.6634    1.0829 C   0  0  0  0  0  0  0  0  0  0  0  0
    2.8891    1.0488    1.1070 C   0  0  0  0  0  0  0  0  0  0  0  0
    2.2096    2.6023    1.9669 Br  0  0  0  0  0  0  0  0  0  0  0  0
   -0.2242    0.6254   -0.9410 O   0  0  0  0  0  0  0  0  0  0  0  0
   -1.5781    0.5939   -0.6275 C   0  0  0  0  0  0  0  0  0  0  0  0
   -2.3277    0.0439   -1.8082 C   0  0  0  0  0  0  0  0  0  0  0  0
   -1.9680    1.9905   -0.2415 C   0  0  0  0  0  0  0  0  0  0  0  0
   -0.2346   -1.9592    0.9232 H   0  0  0  0  0  0  0  0  0  0  0  0
   -0.9822   -1.9193   -0.7146 H   0  0  0  0  0  0  0  0  0  0  0  0
   -1.9229   -2.4238    0.7073 H   0  0  0  0  0  0  0  0  0  0  0  0
   -3.4260   -1.2180    1.3141 H   0  0  0  0  0  0  0  0  0  0  0  0
   -3.6974    0.3905    0.6609 H   0  0  0  0  0  0  0  0  0  0  0  0
   -2.8794    0.2946    2.2377 H   0  0  0  0  0  0  0  0  0  0  0  0
    1.7215   -1.5791   -0.7299 H   0  0  0  0  0  0  0  0  0  0  0  0
    5.6969   -0.7263    0.4595 H   0  0  0  0  0  0  0  0  0  0  0  0
    4.9044    1.2951    1.5936 H   0  0  0  0  0  0  0  0  0  0  0  0
   -3.2486    0.6434   -1.9484 H   0  0  0  0  0  0  0  0  0  0  0  0
   -2.4959   -1.0351   -1.7728 H   0  0  0  0  0  0  0  0  0  0  0  0
   -1.7117    0.2214   -2.7345 H   0  0  0  0  0  0  0  0  0  0  0  0
   -1.4219    2.2177    0.6977 H   0  0  0  0  0  0  0  0  0  0  0  0
   -3.0479    2.1563   -0.1278 H   0  0  0  0  0  0  0  0  0  0  0  0
   -1.5924    2.6507   -1.0711 H   0  0  0  0  0  0  0  0  0  0  0  0
  1  2  1  0
  2  3  1  0
  2  4  1  0
  4  5  1  0
  5  6  1  0
  6  7  2  0
  7  8  1  0
  8  9  1  0
  8 10  2  0
 10 11  1  0
 11 12  2  0
 12 13  1  0
  5 14  1  0
 14 15  1  0
 15 16  1  0
 15 17  1  0
 15  2  1  0
 12  6  1  0
  1 18  1  0
  1 19  1  0
  1 20  1  0
  3 21  1  0
  3 22  1  0
  3 23  1  0
  7 24  1  0
 10 25  1  0
 11 26  1  0
 16 27  1  0
 16 28  1  0
 16 29  1  0
 17 30  1  0
 17 31  1  0
 17 32  1  0
M  END
