
     RDKit          3D

 22 22  0  0  0  0  0  0  0  0999 V2000
    3.8499   -1.4029   -1.3871 N   0  0  0  0  0  0  0  0  0  0  0  0
    2.9128   -0.3469   -1.4129 N   0  0  0  0  0  0  0  0  0  0  0  0
    2.1624   -0.0715   -0.2698 C   0  0  0  0  0  0  0  0  0  0  0  0
    2.3331   -0.6691    0.7911 O   0  0  0  0  0  0  0  0  0  0  0  0
    1.1263    1.0347   -0.4899 C   0  0  0  0  0  0  0  0  0  0  0  0
    0.3761    1.3749    0.6733 O   0  0  0  0  0  0  0  0  0  0  0  0
   -0.8445    0.7541    0.6816 C   0  0  0  0  0  0  0  0  0  0  0  0
   -0.9541   -0.4704    1.3429 C   0  0  0  0  0  0  0  0  0  0  0  0
   -2.1872   -1.1207    1.4037 C   0  0  0  0  0  0  0  0  0  0  0  0
   -3.3079   -0.5329    0.8175 C   0  0  0  0  0  0  0  0  0  0  0  0
   -4.9779   -1.4156    0.9017 Br  0  0  0  0  0  0  0  0  0  0  0  0
   -3.2122    0.7027    0.1771 C   0  0  0  0  0  0  0  0  0  0  0  0
   -1.9773    1.3517    0.1173 C   0  0  0  0  0  0  0  0  0  0  0  0
   -1.8876    3.0431   -0.7363 Br  0  0  0  0  0  0  0  0  0  0  0  0
    4.6993   -1.0494   -0.9340 H   0  0  0  0  0  0  0  0  0  0  0  0
    3.5027   -2.0979   -0.7112 H   0  0  0  0  0  0  0  0  0  0  0  0
    2.6661    0.0614   -2.3128 H   0  0  0  0  0  0  0  0  0  0  0  0
    1.6743    1.9372   -0.7851 H   0  0  0  0  0  0  0  0  0  0  0  0
    0.4849    0.7516   -1.3357 H   0  0  0  0  0  0  0  0  0  0  0  0
   -0.0820   -0.9161    1.8168 H   0  0  0  0  0  0  0  0  0  0  0  0
   -2.2627   -2.0768    1.9158 H   0  0  0  0  0  0  0  0  0  0  0  0
   -4.0944    1.1589   -0.2640 H   0  0  0  0  0  0  0  0  0  0  0  0
  1  2  1  0
  2  3  1  0
  3  4  2  0
  3  5  1  0
  5  6  1  0
  6  7  1  0
  7  8  2  0
  8  9  1  0
  9 10  2  0
 10 11  1  0
 10 12  1  0
 12 13  2  0
 13 14  1  0
 13  7  1  0
  1 15  1  0
  1 16  1  0
  2 17  1  0
  5 18  1  0
  5 19  1  0
  8 20  1  0
  9 21  1  0
 12 22  1  0
M  END
