
     RDKit          3D

 18 18  0  0  0  0  0  0  0  0999 V2000
   -2.3382   -0.9398   -0.8261 O   0  0  0  0  0  0  0  0  0  0  0  0
   -2.4486   -0.1636    0.1076 C   0  0  0  0  0  0  0  0  0  0  0  0
   -3.6733    0.2315    0.5169 O   0  0  0  0  0  0  0  0  0  0  0  0
   -1.3526    0.4343    0.9552 C   0  0  0  0  0  0  0  0  0  0  0  0
    0.0354    0.2190    0.3921 C   0  0  0  0  0  0  0  0  0  0  0  0
    0.8433   -0.7895    0.9510 C   0  0  0  0  0  0  0  0  0  0  0  0
    2.1241   -1.0327    0.4524 C   0  0  0  0  0  0  0  0  0  0  0  0
    3.1888   -2.3905    1.2248 Br  0  0  0  0  0  0  0  0  0  0  0  0
    2.6230   -0.2847   -0.6090 C   0  0  0  0  0  0  0  0  0  0  0  0
    1.8324    0.7137   -1.1784 C   0  0  0  0  0  0  0  0  0  0  0  0
    0.5466    0.9643   -0.6849 C   0  0  0  0  0  0  0  0  0  0  0  0
   -0.4524    2.3424   -1.5294 Br  0  0  0  0  0  0  0  0  0  0  0  0
   -4.2843   -0.2205   -0.1031 H   0  0  0  0  0  0  0  0  0  0  0  0
   -1.4240   -0.0178    1.9521 H   0  0  0  0  0  0  0  0  0  0  0  0
   -1.5345    1.5069    1.0846 H   0  0  0  0  0  0  0  0  0  0  0  0
    0.4685   -1.3919    1.7763 H   0  0  0  0  0  0  0  0  0  0  0  0
    3.6186   -0.4716   -1.0026 H   0  0  0  0  0  0  0  0  0  0  0  0
    2.2272    1.2905   -2.0117 H   0  0  0  0  0  0  0  0  0  0  0  0
  1  2  2  0
  2  3  1  0
  2  4  1  0
  4  5  1  0
  5  6  2  0
  6  7  1  0
  7  8  1  0
  7  9  2  0
  9 10  1  0
 10 11  2  0
 11 12  1  0
 11  5  1  0
  3 13  1  0
  4 14  1  0
  4 15  1  0
  6 16  1  0
  9 17  1  0
 10 18  1  0
M  END
