
     RDKit          3D

 22 22  0  0  0  0  0  0  0  0999 V2000
   -1.9947   -0.1159   -1.5295 C   0  0  0  0  0  0  0  0  0  0  0  0
   -1.5309   -0.1555   -0.0772 C   0  0  0  0  0  0  0  0  0  0  0  0
   -0.4325   -1.0748    0.0325 O   0  0  0  0  0  0  0  0  0  0  0  0
    0.7742   -0.4324    0.1176 C   0  0  0  0  0  0  0  0  0  0  0  0
    1.5409   -0.3562   -1.0474 C   0  0  0  0  0  0  0  0  0  0  0  0
    2.7938    0.2575   -1.0203 C   0  0  0  0  0  0  0  0  0  0  0  0
    3.2827    0.7750    0.1785 C   0  0  0  0  0  0  0  0  0  0  0  0
    4.9809    1.6054    0.2142 Br  0  0  0  0  0  0  0  0  0  0  0  0
    2.5376    0.6763    1.3532 C   0  0  0  0  0  0  0  0  0  0  0  0
    1.2835    0.0611    1.3247 C   0  0  0  0  0  0  0  0  0  0  0  0
    0.3310   -0.0950    2.9571 Br  0  0  0  0  0  0  0  0  0  0  0  0
   -2.6801   -0.6435    0.8012 C   0  0  0  0  0  0  0  0  0  0  0  0
   -2.7665   -1.6992    1.4068 O   0  0  0  0  0  0  0  0  0  0  0  0
   -3.6871    0.2559    0.8836 O   0  0  0  0  0  0  0  0  0  0  0  0
   -2.8650    0.5355   -1.6579 H   0  0  0  0  0  0  0  0  0  0  0  0
   -2.2649   -1.1187   -1.8798 H   0  0  0  0  0  0  0  0  0  0  0  0
   -1.1968    0.2466   -2.1850 H   0  0  0  0  0  0  0  0  0  0  0  0
   -1.2582    0.8512    0.2670 H   0  0  0  0  0  0  0  0  0  0  0  0
    1.1657   -0.7792   -1.9757 H   0  0  0  0  0  0  0  0  0  0  0  0
    3.3813    0.3185   -1.9330 H   0  0  0  0  0  0  0  0  0  0  0  0
    2.9360    1.0662    2.2862 H   0  0  0  0  0  0  0  0  0  0  0  0
   -4.3310   -0.1787    1.4832 H   0  0  0  0  0  0  0  0  0  0  0  0
  1  2  1  0
  2  3  1  0
  3  4  1  0
  4  5  2  0
  5  6  1  0
  6  7  2  0
  7  8  1  0
  7  9  1  0
  9 10  2  0
 10 11  1  0
  2 12  1  0
 12 13  2  0
 12 14  1  0
 10  4  1  0
  1 15  1  0
  1 16  1  0
  1 17  1  0
  2 18  1  0
  5 19  1  0
  6 20  1  0
  9 21  1  0
 14 22  1  0
M  END
