
     RDKit          3D

 32 33  0  0  0  0  0  0  0  0999 V2000
   -1.7616   -0.8983   -1.4285 C   0  0  0  0  0  0  0  0  0  0  0  0
   -1.7450    0.3187   -0.5395 C   0  0  0  0  0  0  0  0  0  0  0  0
   -2.9328    1.2048   -0.7122 C   0  0  0  0  0  0  0  0  0  0  0  0
   -0.5182    0.9729   -0.8041 O   0  0  0  0  0  0  0  0  0  0  0  0
    0.3980   -0.0064   -0.2161 B   0  0  0  0  0  0  0  0  0  0  0  0
    1.9628   -0.0160   -0.3224 C   0  0  0  0  0  0  0  0  0  0  0  0
    2.8334    1.0448   -0.2445 C   0  0  0  0  0  0  0  0  0  0  0  0
    4.1846    0.8107   -0.3653 C   0  0  0  0  0  0  0  0  0  0  0  0
    5.3361    2.3228   -0.2483 Br  0  0  0  0  0  0  0  0  0  0  0  0
    4.6951   -0.4512   -0.5616 C   0  0  0  0  0  0  0  0  0  0  0  0
    3.8119   -1.5263   -0.6405 C   0  0  0  0  0  0  0  0  0  0  0  0
    2.4446   -1.3043   -0.5202 C   0  0  0  0  0  0  0  0  0  0  0  0
    1.3696   -2.8813   -0.6507 Br  0  0  0  0  0  0  0  0  0  0  0  0
   -0.3463   -0.8164    0.7750 O   0  0  0  0  0  0  0  0  0  0  0  0
   -1.4939   -0.0431    0.9219 C   0  0  0  0  0  0  0  0  0  0  0  0
   -2.6339   -0.8094    1.5370 C   0  0  0  0  0  0  0  0  0  0  0  0
   -1.1231    1.2032    1.6670 C   0  0  0  0  0  0  0  0  0  0  0  0
   -2.6280   -0.8727   -2.1419 H   0  0  0  0  0  0  0  0  0  0  0  0
   -0.8683   -0.9817   -2.0885 H   0  0  0  0  0  0  0  0  0  0  0  0
   -1.7657   -1.8456   -0.8350 H   0  0  0  0  0  0  0  0  0  0  0  0
   -3.7453    0.5726   -1.1513 H   0  0  0  0  0  0  0  0  0  0  0  0
   -3.3225    1.5652    0.2736 H   0  0  0  0  0  0  0  0  0  0  0  0
   -2.6796    2.0095   -1.4162 H   0  0  0  0  0  0  0  0  0  0  0  0
    2.3384    1.9935   -0.0894 H   0  0  0  0  0  0  0  0  0  0  0  0
    5.7533   -0.5895   -0.6504 H   0  0  0  0  0  0  0  0  0  0  0  0
    4.2426   -2.5075   -0.7954 H   0  0  0  0  0  0  0  0  0  0  0  0
   -3.6214   -0.5150    1.1251 H   0  0  0  0  0  0  0  0  0  0  0  0
   -2.5068   -1.8942    1.2888 H   0  0  0  0  0  0  0  0  0  0  0  0
   -2.6186   -0.6525    2.6377 H   0  0  0  0  0  0  0  0  0  0  0  0
   -0.8263    2.0061    0.9410 H   0  0  0  0  0  0  0  0  0  0  0  0
   -0.2430    1.0651    2.3311 H   0  0  0  0  0  0  0  0  0  0  0  0
   -1.9902    1.5213    2.2866 H   0  0  0  0  0  0  0  0  0  0  0  0
  1  2  1  0
  2  3  1  0
  2  4  1  0
  4  5  1  0
  5  6  1  0
  6  7  2  0
  7  8  1  0
  8  9  1  0
  8 10  2  0
 10 11  1  0
 11 12  2  0
 12 13  1  0
  5 14  1  0
 14 15  1  0
 15 16  1  0
 15 17  1  0
 15  2  1  0
 12  6  1  0
  1 18  1  0
  1 19  1  0
  1 20  1  0
  3 21  1  0
  3 22  1  0
  3 23  1  0
  7 24  1  0
 10 25  1  0
 11 26  1  0
 16 27  1  0
 16 28  1  0
 16 29  1  0
 17 30  1  0
 17 31  1  0
 17 32  1  0
M  END
