
     RDKit          3D

 25 25  0  0  0  0  0  0  0  0999 V2000
   -1.9199   -2.3269   -0.1990 C   0  0  0  0  0  0  0  0  0  0  0  0
   -1.1439   -1.0518   -0.5159 C   0  0  0  0  0  0  0  0  0  0  0  0
    0.0694   -1.1066    0.2326 O   0  0  0  0  0  0  0  0  0  0  0  0
    1.1126   -0.2906   -0.1166 C   0  0  0  0  0  0  0  0  0  0  0  0
    1.0683    0.6784   -1.1244 C   0  0  0  0  0  0  0  0  0  0  0  0
    2.1911    1.4681   -1.3985 C   0  0  0  0  0  0  0  0  0  0  0  0
    3.3624    1.2945   -0.6661 C   0  0  0  0  0  0  0  0  0  0  0  0
    4.8728    2.3655   -1.0440 Br  0  0  0  0  0  0  0  0  0  0  0  0
    3.4264    0.3396    0.3430 C   0  0  0  0  0  0  0  0  0  0  0  0
    2.3034   -0.4469    0.6150 C   0  0  0  0  0  0  0  0  0  0  0  0
    2.4438   -1.7314    2.0111 Br  0  0  0  0  0  0  0  0  0  0  0  0
   -2.0056    0.1595   -0.1365 C   0  0  0  0  0  0  0  0  0  0  0  0
   -2.6236    0.8228   -0.9688 O   0  0  0  0  0  0  0  0  0  0  0  0
   -2.0516    0.4158    1.2306 N   0  0  0  0  0  0  0  0  0  0  0  0
   -2.7075    1.5800    1.6909 N   0  0  0  0  0  0  0  0  0  0  0  0
   -2.1061   -2.4241    0.8767 H   0  0  0  0  0  0  0  0  0  0  0  0
   -2.8842   -2.3451   -0.7167 H   0  0  0  0  0  0  0  0  0  0  0  0
   -1.3429   -3.2083   -0.4992 H   0  0  0  0  0  0  0  0  0  0  0  0
   -0.9407   -1.0383   -1.5933 H   0  0  0  0  0  0  0  0  0  0  0  0
    0.1785    0.8600   -1.7199 H   0  0  0  0  0  0  0  0  0  0  0  0
    2.1365    2.2176   -2.1851 H   0  0  0  0  0  0  0  0  0  0  0  0
    4.3410    0.2080    0.9150 H   0  0  0  0  0  0  0  0  0  0  0  0
   -1.3205    0.0046    1.8143 H   0  0  0  0  0  0  0  0  0  0  0  0
   -2.7774    2.2259    0.8924 H   0  0  0  0  0  0  0  0  0  0  0  0
   -3.6823    1.3295    1.8814 H   0  0  0  0  0  0  0  0  0  0  0  0
  1  2  1  0
  2  3  1  0
  3  4  1  0
  4  5  2  0
  5  6  1  0
  6  7  2  0
  7  8  1  0
  7  9  1  0
  9 10  2  0
 10 11  1  0
  2 12  1  0
 12 13  2  0
 12 14  1  0
 14 15  1  0
 10  4  1  0
  1 16  1  0
  1 17  1  0
  1 18  1  0
  2 19  1  0
  5 20  1  0
  6 21  1  0
  9 22  1  0
 14 23  1  0
 15 24  1  0
 15 25  1  0
M  END
