
     RDKit          3D

 18 18  0  0  0  0  0  0  0  0999 V2000
    3.6642    0.4174   -0.2842 O   0  0  0  0  0  0  0  0  0  0  0  0
    2.5232    0.1448    0.0589 C   0  0  0  0  0  0  0  0  0  0  0  0
    2.1392    0.3587    1.3308 O   0  0  0  0  0  0  0  0  0  0  0  0
    1.4827   -0.4952   -0.8248 C   0  0  0  0  0  0  0  0  0  0  0  0
    0.0470   -0.2438   -0.4059 C   0  0  0  0  0  0  0  0  0  0  0  0
   -0.6036    0.9646   -0.7340 C   0  0  0  0  0  0  0  0  0  0  0  0
    0.2535    2.3575   -1.7096 Br  0  0  0  0  0  0  0  0  0  0  0  0
   -1.9263    1.2073   -0.3426 C   0  0  0  0  0  0  0  0  0  0  0  0
   -2.6250    0.2576    0.3945 C   0  0  0  0  0  0  0  0  0  0  0  0
   -1.9990   -0.9326    0.7492 C   0  0  0  0  0  0  0  0  0  0  0  0
   -0.6759   -1.1811    0.3605 C   0  0  0  0  0  0  0  0  0  0  0  0
    0.0702   -2.8330    0.9438 Br  0  0  0  0  0  0  0  0  0  0  0  0
    2.9308    0.7471    1.7583 H   0  0  0  0  0  0  0  0  0  0  0  0
    1.7066   -1.5643   -0.8802 H   0  0  0  0  0  0  0  0  0  0  0  0
    1.6315   -0.1308   -1.8477 H   0  0  0  0  0  0  0  0  0  0  0  0
   -2.4193    2.1410   -0.6047 H   0  0  0  0  0  0  0  0  0  0  0  0
   -3.6506    0.4483    0.7000 H   0  0  0  0  0  0  0  0  0  0  0  0
   -2.5494   -1.6636    1.3378 H   0  0  0  0  0  0  0  0  0  0  0  0
  1  2  2  0
  2  3  1  0
  2  4  1  0
  4  5  1  0
  5  6  2  0
  6  7  1  0
  6  8  1  0
  8  9  2  0
  9 10  1  0
 10 11  2  0
 11 12  1  0
 11  5  1  0
  3 13  1  0
  4 14  1  0
  4 15  1  0
  8 16  1  0
  9 17  1  0
 10 18  1  0
M  END
