
     RDKit          3D

 23 24  0  0  0  0  0  0  0  0999 V2000
    0.8010   -1.3815   -0.8800 O   0  0  0  0  0  0  0  0  0  0  0  0
    0.2962   -0.4615   -0.2394 C   0  0  0  0  0  0  0  0  0  0  0  0
    1.1112    0.5031    0.5874 C   0  0  0  0  0  0  0  0  0  0  0  0
    2.5346    0.3718    0.3485 N   0  0  0  0  0  0  0  0  0  0  0  0
    3.2028    1.3440   -0.3075 N   0  0  0  0  0  0  0  0  0  0  0  0
    4.4576    0.8839   -0.2473 C   0  0  0  0  0  0  0  0  0  0  0  0
    5.9053    1.8022   -1.0317 Br  0  0  0  0  0  0  0  0  0  0  0  0
    4.6189   -0.2784    0.4542 N   0  0  0  0  0  0  0  0  0  0  0  0
    3.3938   -0.5795    0.8198 C   0  0  0  0  0  0  0  0  0  0  0  0
    2.9584   -2.0981    1.8849 Br  0  0  0  0  0  0  0  0  0  0  0  0
   -1.1906   -0.3025   -0.2530 C   0  0  0  0  0  0  0  0  0  0  0  0
   -1.9385   -1.1229   -1.1100 C   0  0  0  0  0  0  0  0  0  0  0  0
   -3.3296   -1.0155   -1.1580 C   0  0  0  0  0  0  0  0  0  0  0  0
   -3.9842   -0.0896   -0.3493 C   0  0  0  0  0  0  0  0  0  0  0  0
   -3.2502    0.7282    0.5083 C   0  0  0  0  0  0  0  0  0  0  0  0
   -1.8567    0.6244    0.5600 C   0  0  0  0  0  0  0  0  0  0  0  0
    0.8361    1.5333    0.3373 H   0  0  0  0  0  0  0  0  0  0  0  0
    0.9386    0.3255    1.6533 H   0  0  0  0  0  0  0  0  0  0  0  0
   -1.4421   -1.8521   -1.7488 H   0  0  0  0  0  0  0  0  0  0  0  0
   -3.9002   -1.6553   -1.8271 H   0  0  0  0  0  0  0  0  0  0  0  0
   -5.0680   -0.0061   -0.3872 H   0  0  0  0  0  0  0  0  0  0  0  0
   -3.7667    1.4487    1.1390 H   0  0  0  0  0  0  0  0  0  0  0  0
   -1.3278    1.2781    1.2465 H   0  0  0  0  0  0  0  0  0  0  0  0
  1  2  2  0
  2  3  1  0
  3  4  1  0
  4  5  1  0
  5  6  2  0
  6  7  1  0
  6  8  1  0
  8  9  2  0
  9 10  1  0
  2 11  1  0
 11 12  2  0
 12 13  1  0
 13 14  2  0
 14 15  1  0
 15 16  2  0
  9  4  1  0
 16 11  1  0
  3 17  1  0
  3 18  1  0
 12 19  1  0
 13 20  1  0
 14 21  1  0
 15 22  1  0
 16 23  1  0
M  END
