
     RDKit          3D

 23 24  0  0  0  0  0  0  0  0999 V2000
    0.1060   -2.2266    0.9231 O   0  0  0  0  0  0  0  0  0  0  0  0
   -0.0028   -1.3455    0.0692 C   0  0  0  0  0  0  0  0  0  0  0  0
   -1.2580   -1.2292   -0.7541 C   0  0  0  0  0  0  0  0  0  0  0  0
   -2.2600   -0.4502   -0.0689 N   0  0  0  0  0  0  0  0  0  0  0  0
   -2.4266    0.8531   -0.3769 N   0  0  0  0  0  0  0  0  0  0  0  0
   -3.4372    1.1871    0.4336 C   0  0  0  0  0  0  0  0  0  0  0  0
   -4.1473    2.9321    0.4903 Br  0  0  0  0  0  0  0  0  0  0  0  0
   -3.9207    0.1703    1.2070 N   0  0  0  0  0  0  0  0  0  0  0  0
   -3.1658   -0.8507    0.8704 C   0  0  0  0  0  0  0  0  0  0  0  0
   -3.3770   -2.5942    1.6064 Br  0  0  0  0  0  0  0  0  0  0  0  0
    1.1318   -0.3973   -0.1491 C   0  0  0  0  0  0  0  0  0  0  0  0
    2.3729   -0.7170    0.4222 C   0  0  0  0  0  0  0  0  0  0  0  0
    3.4721    0.1263    0.2501 C   0  0  0  0  0  0  0  0  0  0  0  0
    3.3397    1.2985   -0.4898 C   0  0  0  0  0  0  0  0  0  0  0  0
    2.1090    1.6295   -1.0539 C   0  0  0  0  0  0  0  0  0  0  0  0
    1.0059    0.7868   -0.8851 C   0  0  0  0  0  0  0  0  0  0  0  0
   -1.6583   -2.2316   -0.9404 H   0  0  0  0  0  0  0  0  0  0  0  0
   -1.0673   -0.7928   -1.7388 H   0  0  0  0  0  0  0  0  0  0  0  0
    2.4926   -1.6276    1.0075 H   0  0  0  0  0  0  0  0  0  0  0  0
    4.4293   -0.1310    0.6975 H   0  0  0  0  0  0  0  0  0  0  0  0
    4.1938    1.9587   -0.6208 H   0  0  0  0  0  0  0  0  0  0  0  0
    2.0044    2.5521   -1.6209 H   0  0  0  0  0  0  0  0  0  0  0  0
    0.0636    1.0991   -1.3256 H   0  0  0  0  0  0  0  0  0  0  0  0
  1  2  2  0
  2  3  1  0
  3  4  1  0
  4  5  1  0
  5  6  2  0
  6  7  1  0
  6  8  1  0
  8  9  2  0
  9 10  1  0
  2 11  1  0
 11 12  2  0
 12 13  1  0
 13 14  2  0
 14 15  1  0
 15 16  2  0
  9  4  1  0
 16 11  1  0
  3 17  1  0
  3 18  1  0
 12 19  1  0
 13 20  1  0
 14 21  1  0
 15 22  1  0
 16 23  1  0
M  END
