
     RDKit          3D

 25 26  0  0  0  0  0  0  0  0999 V2000
    5.0178    2.0601    0.2496 Br  0  0  0  0  0  0  0  0  0  0  0  0
    3.5982    0.8463   -0.0040 C   0  0  0  0  0  0  0  0  0  0  0  0
    2.8433    0.4046    1.0719 C   0  0  0  0  0  0  0  0  0  0  0  0
    1.8120   -0.4660    0.9605 N   0  0  0  0  0  0  0  0  0  0  0  0
    1.5147   -0.9039   -0.2877 C   0  0  0  0  0  0  0  0  0  0  0  0
    0.4929   -1.8167   -0.4437 O   0  0  0  0  0  0  0  0  0  0  0  0
   -0.4883   -1.7910    0.5938 C   0  0  0  0  0  0  0  0  0  0  0  0
   -1.4786   -0.6688    0.3851 C   0  0  0  0  0  0  0  0  0  0  0  0
   -2.3053   -0.6544   -0.7477 C   0  0  0  0  0  0  0  0  0  0  0  0
   -3.2159    0.3843   -0.9457 C   0  0  0  0  0  0  0  0  0  0  0  0
   -3.3068    1.4188   -0.0162 C   0  0  0  0  0  0  0  0  0  0  0  0
   -2.4855    1.4177    1.1100 C   0  0  0  0  0  0  0  0  0  0  0  0
   -1.5741    0.3797    1.3097 C   0  0  0  0  0  0  0  0  0  0  0  0
    2.2323   -0.5219   -1.4213 C   0  0  0  0  0  0  0  0  0  0  0  0
    1.8118   -1.1646   -3.1521 Br  0  0  0  0  0  0  0  0  0  0  0  0
    3.2903    0.3740   -1.2743 C   0  0  0  0  0  0  0  0  0  0  0  0
    3.0476    0.7417    2.0845 H   0  0  0  0  0  0  0  0  0  0  0  0
   -0.0474   -1.7866    1.5986 H   0  0  0  0  0  0  0  0  0  0  0  0
   -1.0388   -2.7382    0.5316 H   0  0  0  0  0  0  0  0  0  0  0  0
   -2.2360   -1.4526   -1.4838 H   0  0  0  0  0  0  0  0  0  0  0  0
   -3.8518    0.3877   -1.8271 H   0  0  0  0  0  0  0  0  0  0  0  0
   -4.0150    2.2283   -0.1716 H   0  0  0  0  0  0  0  0  0  0  0  0
   -2.5517    2.2275    1.8317 H   0  0  0  0  0  0  0  0  0  0  0  0
   -0.9298    0.3965    2.1864 H   0  0  0  0  0  0  0  0  0  0  0  0
    3.8639    0.6974   -2.1379 H   0  0  0  0  0  0  0  0  0  0  0  0
  1  2  1  0
  2  3  2  0
  3  4  1  0
  4  5  2  0
  5  6  1  0
  6  7  1  0
  7  8  1  0
  8  9  2  0
  9 10  1  0
 10 11  2  0
 11 12  1  0
 12 13  2  0
  5 14  1  0
 14 15  1  0
 14 16  2  0
 16  2  1  0
 13  8  1  0
  3 17  1  0
  7 18  1  0
  7 19  1  0
  9 20  1  0
 10 21  1  0
 11 22  1  0
 12 23  1  0
 13 24  1  0
 16 25  1  0
M  END
