
     RDKit          3D

 26 26  0  0  0  0  0  0  0  0999 V2000
   -4.6429   -0.2365    0.7189 C   0  0  0  0  0  0  0  0  0  0  0  0
   -3.1549   -0.0819    0.5466 C   0  0  0  0  0  0  0  0  0  0  0  0
   -2.4353    0.9127    1.2288 C   0  0  0  0  0  0  0  0  0  0  0  0
   -3.2631    2.1305    2.4367 Br  0  0  0  0  0  0  0  0  0  0  0  0
   -1.0469    1.0438    1.0697 C   0  0  0  0  0  0  0  0  0  0  0  0
   -0.3214    0.2002    0.2221 C   0  0  0  0  0  0  0  0  0  0  0  0
    1.0716    0.3499    0.1689 N   0  0  0  0  0  0  0  0  0  0  0  0
    1.8129   -0.2373   -0.9658 C   0  0  0  0  0  0  0  0  0  0  0  0
    3.3171   -0.0041   -0.7972 C   0  0  0  0  0  0  0  0  0  0  0  0
    4.0852    0.1737   -1.7404 O   0  0  0  0  0  0  0  0  0  0  0  0
    3.7326   -0.0618    0.5299 N   0  0  0  0  0  0  0  0  0  0  0  0
    5.0603    0.2772    0.8652 N   0  0  0  0  0  0  0  0  0  0  0  0
   -1.0197   -0.8371   -0.3954 C   0  0  0  0  0  0  0  0  0  0  0  0
   -2.4103   -0.9755   -0.2428 C   0  0  0  0  0  0  0  0  0  0  0  0
   -3.2098   -2.4571   -1.1363 Br  0  0  0  0  0  0  0  0  0  0  0  0
   -4.8554   -0.9082    1.5563 H   0  0  0  0  0  0  0  0  0  0  0  0
   -5.1213   -0.6287   -0.1832 H   0  0  0  0  0  0  0  0  0  0  0  0
   -5.1386    0.7218    0.8975 H   0  0  0  0  0  0  0  0  0  0  0  0
   -0.5212    1.8178    1.6258 H   0  0  0  0  0  0  0  0  0  0  0  0
    1.3264    1.3311    0.3016 H   0  0  0  0  0  0  0  0  0  0  0  0
    1.4936    0.2315   -1.9028 H   0  0  0  0  0  0  0  0  0  0  0  0
    1.6713   -1.3216   -1.0202 H   0  0  0  0  0  0  0  0  0  0  0  0
    3.0043   -0.0514    1.2485 H   0  0  0  0  0  0  0  0  0  0  0  0
    5.4616    0.7711    0.0560 H   0  0  0  0  0  0  0  0  0  0  0  0
    5.5998   -0.5925    0.9062 H   0  0  0  0  0  0  0  0  0  0  0  0
   -0.4957   -1.5673   -1.0045 H   0  0  0  0  0  0  0  0  0  0  0  0
  1  2  1  0
  2  3  2  0
  3  4  1  0
  3  5  1  0
  5  6  2  0
  6  7  1  0
  7  8  1  0
  8  9  1  0
  9 10  2  0
  9 11  1  0
 11 12  1  0
  6 13  1  0
 13 14  2  0
 14 15  1  0
 14  2  1  0
  1 16  1  0
  1 17  1  0
  1 18  1  0
  5 19  1  0
  7 20  1  0
  8 21  1  0
  8 22  1  0
 11 23  1  0
 12 24  1  0
 12 25  1  0
 13 26  1  0
M  END
