
     RDKit          3D

 26 26  0  0  0  0  0  0  0  0999 V2000
    3.7471    1.3920   -0.5283 C   0  0  0  0  0  0  0  0  0  0  0  0
    2.5333    0.5308   -0.2989 C   0  0  0  0  0  0  0  0  0  0  0  0
    2.4079   -0.2668    0.8513 C   0  0  0  0  0  0  0  0  0  0  0  0
    3.7554   -0.3428    2.1952 Br  0  0  0  0  0  0  0  0  0  0  0  0
    1.2779   -1.0730    1.0578 C   0  0  0  0  0  0  0  0  0  0  0  0
    0.2270   -1.1084    0.1370 C   0  0  0  0  0  0  0  0  0  0  0  0
   -0.8544   -1.9695    0.3713 N   0  0  0  0  0  0  0  0  0  0  0  0
   -2.1946   -1.5529   -0.0703 C   0  0  0  0  0  0  0  0  0  0  0  0
   -2.7459   -0.4419    0.8290 C   0  0  0  0  0  0  0  0  0  0  0  0
   -2.9742   -0.6133    2.0272 O   0  0  0  0  0  0  0  0  0  0  0  0
   -2.9455    0.7732    0.1836 N   0  0  0  0  0  0  0  0  0  0  0  0
   -3.3668    1.8952    0.9319 N   0  0  0  0  0  0  0  0  0  0  0  0
    0.3860   -0.3857   -1.0451 C   0  0  0  0  0  0  0  0  0  0  0  0
    1.5130    0.4249   -1.2601 C   0  0  0  0  0  0  0  0  0  0  0  0
    1.5877    1.3287   -2.9352 Br  0  0  0  0  0  0  0  0  0  0  0  0
    3.5181    2.2738   -1.1341 H   0  0  0  0  0  0  0  0  0  0  0  0
    4.1433    1.7978    0.4076 H   0  0  0  0  0  0  0  0  0  0  0  0
    4.5300    0.8115   -1.0267 H   0  0  0  0  0  0  0  0  0  0  0  0
    1.2184   -1.6826    1.9575 H   0  0  0  0  0  0  0  0  0  0  0  0
   -0.8978   -2.2425    1.3561 H   0  0  0  0  0  0  0  0  0  0  0  0
   -2.8729   -2.4081    0.0314 H   0  0  0  0  0  0  0  0  0  0  0  0
   -2.2228   -1.2694   -1.1263 H   0  0  0  0  0  0  0  0  0  0  0  0
   -2.5694    0.9300   -0.7496 H   0  0  0  0  0  0  0  0  0  0  0  0
   -4.1892    1.6052    1.4755 H   0  0  0  0  0  0  0  0  0  0  0  0
   -2.6608    2.0621    1.6588 H   0  0  0  0  0  0  0  0  0  0  0  0
   -0.3508   -0.4683   -1.8381 H   0  0  0  0  0  0  0  0  0  0  0  0
  1  2  1  0
  2  3  2  0
  3  4  1  0
  3  5  1  0
  5  6  2  0
  6  7  1  0
  7  8  1  0
  8  9  1  0
  9 10  2  0
  9 11  1  0
 11 12  1  0
  6 13  1  0
 13 14  2  0
 14 15  1  0
 14  2  1  0
  1 16  1  0
  1 17  1  0
  1 18  1  0
  5 19  1  0
  7 20  1  0
  8 21  1  0
  8 22  1  0
 11 23  1  0
 12 24  1  0
 12 25  1  0
 13 26  1  0
M  END
