
     RDKit          3D

 26 26  0  0  0  0  0  0  0  0999 V2000
   -4.6052   -0.4578   -0.2723 C   0  0  0  0  0  0  0  0  0  0  0  0
   -3.1065   -0.4067   -0.3252 C   0  0  0  0  0  0  0  0  0  0  0  0
   -2.3537   -0.4417    0.8534 C   0  0  0  0  0  0  0  0  0  0  0  0
   -0.9535   -0.4270    0.8066 C   0  0  0  0  0  0  0  0  0  0  0  0
   -0.0275   -0.5240    2.4681 Br  0  0  0  0  0  0  0  0  0  0  0  0
   -0.2668   -0.3910   -0.4234 C   0  0  0  0  0  0  0  0  0  0  0  0
    1.1548   -0.3070   -0.4800 N   0  0  0  0  0  0  0  0  0  0  0  0
    1.6257    1.0925   -0.2954 C   0  0  0  0  0  0  0  0  0  0  0  0
    3.1263    1.1147    0.0074 C   0  0  0  0  0  0  0  0  0  0  0  0
    3.8534    2.0720   -0.2525 O   0  0  0  0  0  0  0  0  0  0  0  0
    3.5731   -0.0370    0.6461 N   0  0  0  0  0  0  0  0  0  0  0  0
    4.9539   -0.2347    0.8583 N   0  0  0  0  0  0  0  0  0  0  0  0
   -1.0414   -0.3726   -1.6012 C   0  0  0  0  0  0  0  0  0  0  0  0
   -0.2164   -0.3415   -3.3161 Br  0  0  0  0  0  0  0  0  0  0  0  0
   -2.4401   -0.3876   -1.5543 C   0  0  0  0  0  0  0  0  0  0  0  0
   -5.0442    0.0655   -1.1282 H   0  0  0  0  0  0  0  0  0  0  0  0
   -4.9807    0.0299    0.6334 H   0  0  0  0  0  0  0  0  0  0  0  0
   -4.9444   -1.4982   -0.2811 H   0  0  0  0  0  0  0  0  0  0  0  0
   -2.8624   -0.4864    1.8147 H   0  0  0  0  0  0  0  0  0  0  0  0
    1.4517   -0.6220   -1.4092 H   0  0  0  0  0  0  0  0  0  0  0  0
    1.4549    1.6624   -1.2155 H   0  0  0  0  0  0  0  0  0  0  0  0
    1.1203    1.5950    0.5362 H   0  0  0  0  0  0  0  0  0  0  0  0
    2.9284   -0.8333    0.6524 H   0  0  0  0  0  0  0  0  0  0  0  0
    5.4507    0.4438    0.2653 H   0  0  0  0  0  0  0  0  0  0  0  0
    5.1644    0.0765    1.8107 H   0  0  0  0  0  0  0  0  0  0  0  0
   -3.0147   -0.3836   -2.4786 H   0  0  0  0  0  0  0  0  0  0  0  0
  1  2  1  0
  2  3  2  0
  3  4  1  0
  4  5  1  0
  4  6  2  0
  6  7  1  0
  7  8  1  0
  8  9  1  0
  9 10  2  0
  9 11  1  0
 11 12  1  0
  6 13  1  0
 13 14  1  0
 13 15  2  0
 15  2  1  0
  1 16  1  0
  1 17  1  0
  1 18  1  0
  3 19  1  0
  7 20  1  0
  8 21  1  0
  8 22  1  0
 11 23  1  0
 12 24  1  0
 12 25  1  0
 15 26  1  0
M  END
