
     RDKit          3D

 17 17  0  0  0  0  0  0  0  0999 V2000
   -2.0682    0.5798   -0.5687 C   0  0  0  0  0  0  0  0  0  0  0  0
   -0.6176    0.3900   -0.2119 C   0  0  0  0  0  0  0  0  0  0  0  0
    0.2268    1.5101   -0.1969 C   0  0  0  0  0  0  0  0  0  0  0  0
    1.5721    1.3929    0.1653 C   0  0  0  0  0  0  0  0  0  0  0  0
    2.6038    2.9928    0.1424 Br  0  0  0  0  0  0  0  0  0  0  0  0
    2.0999    0.1490    0.5321 C   0  0  0  0  0  0  0  0  0  0  0  0
    3.7677    0.0120    1.0023 Cl  0  0  0  0  0  0  0  0  0  0  0  0
    1.2594   -0.9798    0.5150 C   0  0  0  0  0  0  0  0  0  0  0  0
    1.9216   -2.7100    1.0162 Br  0  0  0  0  0  0  0  0  0  0  0  0
   -0.0924   -0.8793    0.1001 C   0  0  0  0  0  0  0  0  0  0  0  0
   -0.9605   -1.9869    0.1978 N   0  0  0  0  0  0  0  0  0  0  0  0
   -2.3029    0.0447   -1.4944 H   0  0  0  0  0  0  0  0  0  0  0  0
   -2.3104    1.6362   -0.7265 H   0  0  0  0  0  0  0  0  0  0  0  0
   -2.7111    0.2156    0.2392 H   0  0  0  0  0  0  0  0  0  0  0  0
   -0.1753    2.4878   -0.4589 H   0  0  0  0  0  0  0  0  0  0  0  0
   -0.4693   -2.8791    0.1940 H   0  0  0  0  0  0  0  0  0  0  0  0
   -1.7434   -1.9757   -0.4470 H   0  0  0  0  0  0  0  0  0  0  0  0
  1  2  1  0
  2  3  2  0
  3  4  1  0
  4  5  1  0
  4  6  2  0
  6  7  1  0
  6  8  1  0
  8  9  1  0
  8 10  2  0
 10 11  1  0
 10  2  1  0
  1 12  1  0
  1 13  1  0
  1 14  1  0
  3 15  1  0
 11 16  1  0
 11 17  1  0
M  END
