
     RDKit          3D

 17 17  0  0  0  0  0  0  0  0999 V2000
   -0.0691   -2.2080   -0.3634 N   0  0  0  0  0  0  0  0  0  0  0  0
   -0.3949   -0.8661   -0.0602 C   0  0  0  0  0  0  0  0  0  0  0  0
   -1.7299   -0.4298   -0.1314 C   0  0  0  0  0  0  0  0  0  0  0  0
   -3.1486   -1.6586   -0.4455 Br  0  0  0  0  0  0  0  0  0  0  0  0
   -2.0655    0.9124    0.0510 C   0  0  0  0  0  0  0  0  0  0  0  0
   -1.0644    1.8564    0.2898 C   0  0  0  0  0  0  0  0  0  0  0  0
   -1.6340    3.6525    0.5592 Br  0  0  0  0  0  0  0  0  0  0  0  0
    0.2831    1.4700    0.3211 C   0  0  0  0  0  0  0  0  0  0  0  0
    1.5182    2.6361    0.6884 Cl  0  0  0  0  0  0  0  0  0  0  0  0
    0.6088    0.1179    0.1014 C   0  0  0  0  0  0  0  0  0  0  0  0
    2.0130   -0.3257    0.0730 C   0  0  0  0  0  0  0  0  0  0  0  0
    2.4797   -1.2347    0.7349 O   0  0  0  0  0  0  0  0  0  0  0  0
    2.7207    0.3198   -0.8686 O   0  0  0  0  0  0  0  0  0  0  0  0
    0.8078   -2.5235    0.0594 H   0  0  0  0  0  0  0  0  0  0  0  0
   -0.8313   -2.8600   -0.1878 H   0  0  0  0  0  0  0  0  0  0  0  0
   -3.1084    1.2205    0.0110 H   0  0  0  0  0  0  0  0  0  0  0  0
    3.6148   -0.0794   -0.8323 H   0  0  0  0  0  0  0  0  0  0  0  0
  1  2  1  0
  2  3  2  0
  3  4  1  0
  3  5  1  0
  5  6  2  0
  6  7  1  0
  6  8  1  0
  8  9  1  0
  8 10  2  0
 10 11  1  0
 11 12  2  0
 11 13  1  0
 10  2  1  0
  1 14  1  0
  1 15  1  0
  5 16  1  0
 13 17  1  0
M  END
