
     RDKit          3D

 12 12  0  0  0  0  0  0  0  0999 V2000
   -2.1325   -0.6728    0.1629 N   0  0  0  0  0  0  0  0  0  0  0  0
   -0.8064   -0.2517    0.0795 C   0  0  0  0  0  0  0  0  0  0  0  0
    0.0735   -1.2033   -0.2976 N   0  0  0  0  0  0  0  0  0  0  0  0
    1.3757   -0.8217   -0.3434 C   0  0  0  0  0  0  0  0  0  0  0  0
    1.7961    0.4623   -0.0274 C   0  0  0  0  0  0  0  0  0  0  0  0
    3.6350    0.8946   -0.1292 Br  0  0  0  0  0  0  0  0  0  0  0  0
    0.9316    1.4259    0.3511 N   0  0  0  0  0  0  0  0  0  0  0  0
   -0.3702    1.0464    0.4091 C   0  0  0  0  0  0  0  0  0  0  0  0
   -1.6200    2.3790    0.9399 Br  0  0  0  0  0  0  0  0  0  0  0  0
   -2.7711   -0.0403   -0.3070 H   0  0  0  0  0  0  0  0  0  0  0  0
   -2.1859   -1.6241   -0.1919 H   0  0  0  0  0  0  0  0  0  0  0  0
    2.0744   -1.5944   -0.6458 H   0  0  0  0  0  0  0  0  0  0  0  0
  1  2  1  0
  2  3  2  0
  3  4  1  0
  4  5  2  0
  5  6  1  0
  5  7  1  0
  7  8  2  0
  8  9  1  0
  8  2  1  0
  1 10  1  0
  1 11  1  0
  4 12  1  0
M  END
