
     RDKit          3D

 15 15  0  0  0  0  0  0  0  0999 V2000
   -2.0974    0.0115    0.8999 N   0  0  0  0  0  0  0  0  0  0  0  0
   -0.7514    0.0081    0.4709 C   0  0  0  0  0  0  0  0  0  0  0  0
    0.0919   -1.0736    0.7158 C   0  0  0  0  0  0  0  0  0  0  0  0
    1.3752   -1.1098    0.1484 C   0  0  0  0  0  0  0  0  0  0  0  0
    2.4603   -2.6121    0.5721 Br  0  0  0  0  0  0  0  0  0  0  0  0
    1.8015   -0.0768   -0.6997 C   0  0  0  0  0  0  0  0  0  0  0  0
    3.5175   -0.0461   -1.5134 Br  0  0  0  0  0  0  0  0  0  0  0  0
    0.9415    0.9853   -0.9866 C   0  0  0  0  0  0  0  0  0  0  0  0
   -0.3211    1.0054   -0.4112 C   0  0  0  0  0  0  0  0  0  0  0  0
   -1.1679    2.0406   -0.6985 O   0  0  0  0  0  0  0  0  0  0  0  0
   -2.2230   -0.5531    1.7394 H   0  0  0  0  0  0  0  0  0  0  0  0
   -2.6928   -0.3749    0.1649 H   0  0  0  0  0  0  0  0  0  0  0  0
   -0.2432   -1.8903    1.3493 H   0  0  0  0  0  0  0  0  0  0  0  0
    1.2389    1.7914   -1.6507 H   0  0  0  0  0  0  0  0  0  0  0  0
   -1.9300    1.8945   -0.1005 H   0  0  0  0  0  0  0  0  0  0  0  0
  1  2  1  0
  2  3  2  0
  3  4  1  0
  4  5  1  0
  4  6  2  0
  6  7  1  0
  6  8  1  0
  8  9  2  0
  9 10  1  0
  9  2  1  0
  1 11  1  0
  1 12  1  0
  3 13  1  0
  8 14  1  0
 10 15  1  0
M  END
