
     RDKit          3D

 17 17  0  0  0  0  0  0  0  0999 V2000
    0.3916   -2.0670   -0.8176 N   0  0  0  0  0  0  0  0  0  0  0  0
    0.5124   -0.7262   -0.3894 C   0  0  0  0  0  0  0  0  0  0  0  0
    1.7836   -0.1820   -0.1113 C   0  0  0  0  0  0  0  0  0  0  0  0
    3.3715   -1.1564   -0.5013 Br  0  0  0  0  0  0  0  0  0  0  0  0
    1.9283    1.0956    0.4365 C   0  0  0  0  0  0  0  0  0  0  0  0
    0.7940    1.8423    0.7416 C   0  0  0  0  0  0  0  0  0  0  0  0
    1.0001    3.5806    1.4603 Br  0  0  0  0  0  0  0  0  0  0  0  0
   -0.4757    1.3138    0.5205 C   0  0  0  0  0  0  0  0  0  0  0  0
   -1.5550    2.0641    0.7941 F   0  0  0  0  0  0  0  0  0  0  0  0
   -0.6203    0.0278   -0.0100 C   0  0  0  0  0  0  0  0  0  0  0  0
   -1.9705   -0.5217   -0.2287 C   0  0  0  0  0  0  0  0  0  0  0  0
   -2.2969   -1.2369   -1.1601 O   0  0  0  0  0  0  0  0  0  0  0  0
   -2.8243   -0.2144    0.7610 O   0  0  0  0  0  0  0  0  0  0  0  0
    1.1988   -2.4069   -1.3359 H   0  0  0  0  0  0  0  0  0  0  0  0
   -0.4909   -2.2640   -1.2996 H   0  0  0  0  0  0  0  0  0  0  0  0
    2.9189    1.5031    0.6241 H   0  0  0  0  0  0  0  0  0  0  0  0
   -3.6657   -0.6520    0.5157 H   0  0  0  0  0  0  0  0  0  0  0  0
  1  2  1  0
  2  3  2  0
  3  4  1  0
  3  5  1  0
  5  6  2  0
  6  7  1  0
  6  8  1  0
  8  9  1  0
  8 10  2  0
 10 11  1  0
 11 12  2  0
 11 13  1  0
 10  2  1  0
  1 14  1  0
  1 15  1  0
  5 16  1  0
 13 17  1  0
M  END
