
     RDKit          3D

 13 13  0  0  0  0  0  0  0  0999 V2000
   -2.0869   -0.9615    0.7279 N   0  0  0  0  0  0  0  0  0  0  0  0
   -0.8104   -0.5275    0.3415 C   0  0  0  0  0  0  0  0  0  0  0  0
    0.1960   -1.4081    0.5037 N   0  0  0  0  0  0  0  0  0  0  0  0
    1.4415   -1.0186    0.1396 C   0  0  0  0  0  0  0  0  0  0  0  0
    1.7336    0.2283   -0.3869 C   0  0  0  0  0  0  0  0  0  0  0  0
    3.4975    0.6860   -0.8667 Br  0  0  0  0  0  0  0  0  0  0  0  0
    0.6967    1.1356   -0.5540 C   0  0  0  0  0  0  0  0  0  0  0  0
   -0.5927    0.7537   -0.1853 C   0  0  0  0  0  0  0  0  0  0  0  0
   -2.0104    1.9925   -0.4131 Br  0  0  0  0  0  0  0  0  0  0  0  0
   -2.4522   -0.3299    1.4356 H   0  0  0  0  0  0  0  0  0  0  0  0
   -2.7127   -0.9052   -0.0710 H   0  0  0  0  0  0  0  0  0  0  0  0
    2.2130   -1.7682    0.2924 H   0  0  0  0  0  0  0  0  0  0  0  0
    0.8870    2.1229   -0.9639 H   0  0  0  0  0  0  0  0  0  0  0  0
  1  2  1  0
  2  3  2  0
  3  4  1  0
  4  5  2  0
  5  6  1  0
  5  7  1  0
  7  8  2  0
  8  9  1  0
  8  2  1  0
  1 10  1  0
  1 11  1  0
  4 12  1  0
  7 13  1  0
M  END
