
     RDKit          3D

 16 16  0  0  0  0  0  0  0  0999 V2000
   -1.7455    1.3440    0.4335 N   0  0  0  0  0  0  0  0  0  0  0  0
   -0.5334    0.6361    0.3108 C   0  0  0  0  0  0  0  0  0  0  0  0
    0.6920    1.2556    0.6262 C   0  0  0  0  0  0  0  0  0  0  0  0
    0.7382    2.9705    1.4508 Br  0  0  0  0  0  0  0  0  0  0  0  0
    1.9153    0.6334    0.3591 C   0  0  0  0  0  0  0  0  0  0  0  0
    1.9301   -0.6105   -0.2632 C   0  0  0  0  0  0  0  0  0  0  0  0
    3.5811   -1.4538   -0.6329 Br  0  0  0  0  0  0  0  0  0  0  0  0
    0.7408   -1.2386   -0.6216 C   0  0  0  0  0  0  0  0  0  0  0  0
   -0.4825   -0.6129   -0.3434 C   0  0  0  0  0  0  0  0  0  0  0  0
   -1.7145   -1.3430   -0.7304 C   0  0  0  0  0  0  0  0  0  0  0  0
   -2.8295   -1.0235   -0.3335 O   0  0  0  0  0  0  0  0  0  0  0  0
   -1.7610    2.0192    1.1922 H   0  0  0  0  0  0  0  0  0  0  0  0
   -2.5689    0.7307    0.4211 H   0  0  0  0  0  0  0  0  0  0  0  0
    2.8485    1.1239    0.6250 H   0  0  0  0  0  0  0  0  0  0  0  0
    0.7672   -2.2094   -1.1105 H   0  0  0  0  0  0  0  0  0  0  0  0
   -1.5779   -2.2217   -1.3831 H   0  0  0  0  0  0  0  0  0  0  0  0
  1  2  1  0
  2  3  2  0
  3  4  1  0
  3  5  1  0
  5  6  2  0
  6  7  1  0
  6  8  1  0
  8  9  2  0
  9 10  1  0
 10 11  2  0
  9  2  1  0
  1 12  1  0
  1 13  1  0
  5 14  1  0
  8 15  1  0
 10 16  1  0
M  END
