
     RDKit          3D

 17 17  0  0  0  0  0  0  0  0999 V2000
    0.6839   -2.0867    0.5545 N   0  0  0  0  0  0  0  0  0  0  0  0
   -0.0740   -0.9200    0.3173 C   0  0  0  0  0  0  0  0  0  0  0  0
   -1.4795   -0.9982    0.2234 C   0  0  0  0  0  0  0  0  0  0  0  0
   -2.3993   -2.6134    0.6379 Br  0  0  0  0  0  0  0  0  0  0  0  0
   -2.2512    0.1026   -0.1576 C   0  0  0  0  0  0  0  0  0  0  0  0
   -1.6217    1.2974   -0.4856 C   0  0  0  0  0  0  0  0  0  0  0  0
   -2.6586    2.7911   -1.0029 Br  0  0  0  0  0  0  0  0  0  0  0  0
   -0.2347    1.4020   -0.4420 C   0  0  0  0  0  0  0  0  0  0  0  0
    0.5425    0.2954   -0.0582 C   0  0  0  0  0  0  0  0  0  0  0  0
    2.0227    0.4273    0.0014 C   0  0  0  0  0  0  0  0  0  0  0  0
    2.7886   -0.3166    0.5883 O   0  0  0  0  0  0  0  0  0  0  0  0
    2.4794    1.4929   -0.6821 O   0  0  0  0  0  0  0  0  0  0  0  0
    1.6367   -1.8982    0.8810 H   0  0  0  0  0  0  0  0  0  0  0  0
    0.2031   -2.7856    1.1149 H   0  0  0  0  0  0  0  0  0  0  0  0
   -3.3341    0.0229   -0.2066 H   0  0  0  0  0  0  0  0  0  0  0  0
    0.2429    2.3426   -0.7070 H   0  0  0  0  0  0  0  0  0  0  0  0
    3.4531    1.4446   -0.5766 H   0  0  0  0  0  0  0  0  0  0  0  0
  1  2  1  0
  2  3  2  0
  3  4  1  0
  3  5  1  0
  5  6  2  0
  6  7  1  0
  6  8  1  0
  8  9  2  0
  9 10  1  0
 10 11  2  0
 10 12  1  0
  9  2  1  0
  1 13  1  0
  1 14  1  0
  5 15  1  0
  8 16  1  0
 12 17  1  0
M  END
