
     RDKit          3D

 17 17  0  0  0  0  0  0  0  0999 V2000
   -0.9364   -2.0838    0.2590 N   0  0  0  0  0  0  0  0  0  0  0  0
   -0.1042   -0.9939   -0.0510 C   0  0  0  0  0  0  0  0  0  0  0  0
    1.2434   -1.2550   -0.3407 C   0  0  0  0  0  0  0  0  0  0  0  0
    2.1633   -0.2151   -0.5241 C   0  0  0  0  0  0  0  0  0  0  0  0
    3.9504   -0.7031   -0.9447 Br  0  0  0  0  0  0  0  0  0  0  0  0
    1.7478    1.1105   -0.3836 C   0  0  0  0  0  0  0  0  0  0  0  0
    2.9125    2.5929   -0.6146 Br  0  0  0  0  0  0  0  0  0  0  0  0
    0.4193    1.3886   -0.0496 C   0  0  0  0  0  0  0  0  0  0  0  0
   -0.5038    0.3454    0.1353 C   0  0  0  0  0  0  0  0  0  0  0  0
   -1.9173    0.6593    0.4775 C   0  0  0  0  0  0  0  0  0  0  0  0
   -2.8605   -0.1094    0.4128 O   0  0  0  0  0  0  0  0  0  0  0  0
   -2.0858    1.9300    0.8872 O   0  0  0  0  0  0  0  0  0  0  0  0
   -1.9348   -1.8498    0.2340 H   0  0  0  0  0  0  0  0  0  0  0  0
   -0.7312   -2.9414   -0.2433 H   0  0  0  0  0  0  0  0  0  0  0  0
    1.5792   -2.2875   -0.4159 H   0  0  0  0  0  0  0  0  0  0  0  0
    0.1008    2.4223    0.0686 H   0  0  0  0  0  0  0  0  0  0  0  0
   -3.0427    1.9899    1.0931 H   0  0  0  0  0  0  0  0  0  0  0  0
  1  2  1  0
  2  3  2  0
  3  4  1  0
  4  5  1  0
  4  6  2  0
  6  7  1  0
  6  8  1  0
  8  9  2  0
  9 10  1  0
 10 11  2  0
 10 12  1  0
  9  2  1  0
  1 13  1  0
  1 14  1  0
  3 15  1  0
  8 16  1  0
 12 17  1  0
M  END
