
     RDKit          3D

 15 15  0  0  0  0  0  0  0  0999 V2000
   -2.0599   -2.8366    0.5997 N   0  0  0  0  0  0  0  0  0  0  0  0
   -1.2834   -1.9998    0.3884 C   0  0  0  0  0  0  0  0  0  0  0  0
   -0.3564   -0.9345    0.1546 C   0  0  0  0  0  0  0  0  0  0  0  0
   -0.7896    0.4038    0.0551 C   0  0  0  0  0  0  0  0  0  0  0  0
   -2.1598    0.7312    0.0305 N   0  0  0  0  0  0  0  0  0  0  0  0
    0.1806    1.3867   -0.2401 C   0  0  0  0  0  0  0  0  0  0  0  0
   -0.3160    3.2098   -0.4712 Br  0  0  0  0  0  0  0  0  0  0  0  0
    1.5373    1.0684   -0.3517 C   0  0  0  0  0  0  0  0  0  0  0  0
    1.9431   -0.2538   -0.2037 C   0  0  0  0  0  0  0  0  0  0  0  0
    3.7787   -0.6824   -0.3552 Br  0  0  0  0  0  0  0  0  0  0  0  0
    1.0011   -1.2492    0.0428 C   0  0  0  0  0  0  0  0  0  0  0  0
    1.3980   -2.5259    0.1682 F   0  0  0  0  0  0  0  0  0  0  0  0
   -2.3549    1.7175    0.1960 H   0  0  0  0  0  0  0  0  0  0  0  0
   -2.7874    0.1188    0.5473 H   0  0  0  0  0  0  0  0  0  0  0  0
    2.2685    1.8459   -0.5606 H   0  0  0  0  0  0  0  0  0  0  0  0
  1  2  3  0
  2  3  1  0
  3  4  2  0
  4  5  1  0
  4  6  1  0
  6  7  1  0
  6  8  2  0
  8  9  1  0
  9 10  1  0
  9 11  2  0
 11 12  1  0
 11  3  1  0
  5 13  1  0
  5 14  1  0
  8 15  1  0
M  END
