
     RDKit          3D

 16 16  0  0  0  0  0  0  0  0999 V2000
   -2.0956    0.9256    0.1398 C   0  0  0  0  0  0  0  0  0  0  0  0
   -0.8494    0.0860    0.0455 C   0  0  0  0  0  0  0  0  0  0  0  0
   -0.8840   -1.3151    0.0868 C   0  0  0  0  0  0  0  0  0  0  0  0
   -2.4772   -2.3282    0.2648 Br  0  0  0  0  0  0  0  0  0  0  0  0
    0.3117   -2.0198    0.0040 C   0  0  0  0  0  0  0  0  0  0  0  0
    1.5294   -1.4456   -0.1062 N   0  0  0  0  0  0  0  0  0  0  0  0
    1.5816   -0.1042   -0.1277 C   0  0  0  0  0  0  0  0  0  0  0  0
    2.8638    0.4578   -0.2283 N   0  0  0  0  0  0  0  0  0  0  0  0
    0.4226    0.6924   -0.0488 C   0  0  0  0  0  0  0  0  0  0  0  0
    0.6124    2.5950   -0.0552 Br  0  0  0  0  0  0  0  0  0  0  0  0
   -2.1075    1.6905   -0.6437 H   0  0  0  0  0  0  0  0  0  0  0  0
   -2.1495    1.4072    1.1216 H   0  0  0  0  0  0  0  0  0  0  0  0
   -3.0161    0.3553   -0.0007 H   0  0  0  0  0  0  0  0  0  0  0  0
    0.3327   -3.1065    0.0279 H   0  0  0  0  0  0  0  0  0  0  0  0
    3.0235    1.0608    0.5742 H   0  0  0  0  0  0  0  0  0  0  0  0
    2.9014    1.0488   -1.0543 H   0  0  0  0  0  0  0  0  0  0  0  0
  1  2  1  0
  2  3  2  0
  3  4  1  0
  3  5  1  0
  5  6  2  0
  6  7  1  0
  7  8  1  0
  7  9  2  0
  9 10  1  0
  9  2  1  0
  1 11  1  0
  1 12  1  0
  1 13  1  0
  5 14  1  0
  8 15  1  0
  8 16  1  0
M  END
