
     RDKit          3D

 17 17  0  0  0  0  0  0  0  0999 V2000
   -1.8470   -1.2332    0.0700 C   0  0  0  0  0  0  0  0  0  0  0  0
   -0.4907   -0.5806    0.0224 C   0  0  0  0  0  0  0  0  0  0  0  0
    0.6494   -1.3954   -0.0417 C   0  0  0  0  0  0  0  0  0  0  0  0
    1.9288   -0.8382   -0.1268 C   0  0  0  0  0  0  0  0  0  0  0  0
    3.3871   -2.0595   -0.2070 Br  0  0  0  0  0  0  0  0  0  0  0  0
    2.0939    0.5518   -0.1608 C   0  0  0  0  0  0  0  0  0  0  0  0
    3.6851    1.2396   -0.2882 Cl  0  0  0  0  0  0  0  0  0  0  0  0
    0.9546    1.3753   -0.0924 C   0  0  0  0  0  0  0  0  0  0  0  0
    1.1152    3.2871   -0.1439 Br  0  0  0  0  0  0  0  0  0  0  0  0
   -0.3424    0.8200    0.0455 C   0  0  0  0  0  0  0  0  0  0  0  0
   -1.4876    1.6422   -0.0059 N   0  0  0  0  0  0  0  0  0  0  0  0
   -2.4680   -0.8847   -0.7615 H   0  0  0  0  0  0  0  0  0  0  0  0
   -2.3428   -1.0056    1.0191 H   0  0  0  0  0  0  0  0  0  0  0  0
   -1.7740   -2.3229   -0.0123 H   0  0  0  0  0  0  0  0  0  0  0  0
    0.5348   -2.4785   -0.0381 H   0  0  0  0  0  0  0  0  0  0  0  0
   -1.2948    2.6094    0.2481 H   0  0  0  0  0  0  0  0  0  0  0  0
   -2.3017    1.2731    0.4734 H   0  0  0  0  0  0  0  0  0  0  0  0
  1  2  1  0
  2  3  2  0
  3  4  1  0
  4  5  1  0
  4  6  2  0
  6  7  1  0
  6  8  1  0
  8  9  1  0
  8 10  2  0
 10 11  1  0
 10  2  1  0
  1 12  1  0
  1 13  1  0
  1 14  1  0
  3 15  1  0
 11 16  1  0
 11 17  1  0
M  END
