
     RDKit          3D

 16 16  0  0  0  0  0  0  0  0999 V2000
   -2.2703    0.6099    0.2321 C   0  0  0  0  0  0  0  0  0  0  0  0
   -0.8978    0.0060    0.0966 C   0  0  0  0  0  0  0  0  0  0  0  0
   -0.6862   -1.3794    0.0518 C   0  0  0  0  0  0  0  0  0  0  0  0
   -2.0764   -2.6657    0.1508 Br  0  0  0  0  0  0  0  0  0  0  0  0
    0.6148   -1.8584   -0.0643 C   0  0  0  0  0  0  0  0  0  0  0  0
    1.7147   -1.0757   -0.1330 N   0  0  0  0  0  0  0  0  0  0  0  0
    1.5224    0.2531   -0.0776 C   0  0  0  0  0  0  0  0  0  0  0  0
    2.6932    1.0085   -0.0954 N   0  0  0  0  0  0  0  0  0  0  0  0
    0.2470    0.8314    0.0453 C   0  0  0  0  0  0  0  0  0  0  0  0
    0.0981    2.7345    0.1365 Br  0  0  0  0  0  0  0  0  0  0  0  0
   -2.4324    1.3733   -0.5362 H   0  0  0  0  0  0  0  0  0  0  0  0
   -2.3864    1.0585    1.2242 H   0  0  0  0  0  0  0  0  0  0  0  0
   -3.0800   -0.1110    0.1029 H   0  0  0  0  0  0  0  0  0  0  0  0
    0.8230   -2.9249   -0.1030 H   0  0  0  0  0  0  0  0  0  0  0  0
    3.4692    0.3741   -0.2633 H   0  0  0  0  0  0  0  0  0  0  0  0
    2.6471    1.7657   -0.7674 H   0  0  0  0  0  0  0  0  0  0  0  0
  1  2  1  0
  2  3  2  0
  3  4  1  0
  3  5  1  0
  5  6  2  0
  6  7  1  0
  7  8  1  0
  7  9  2  0
  9 10  1  0
  9  2  1  0
  1 11  1  0
  1 12  1  0
  1 13  1  0
  5 14  1  0
  8 15  1  0
  8 16  1  0
M  END
