
     RDKit          3D

 17 17  0  0  0  0  0  0  0  0999 V2000
    0.5455   -2.0956    0.2160 N   0  0  0  0  0  0  0  0  0  0  0  0
   -0.1180   -0.8459    0.2143 C   0  0  0  0  0  0  0  0  0  0  0  0
   -1.4924   -0.7813    0.5093 C   0  0  0  0  0  0  0  0  0  0  0  0
   -2.4400   -2.3179    1.1122 Br  0  0  0  0  0  0  0  0  0  0  0  0
   -2.2042    0.4126    0.3953 C   0  0  0  0  0  0  0  0  0  0  0  0
   -1.5592    1.5691   -0.0461 C   0  0  0  0  0  0  0  0  0  0  0  0
   -2.6183    3.1480   -0.1444 Br  0  0  0  0  0  0  0  0  0  0  0  0
   -0.2012    1.5360   -0.3971 C   0  0  0  0  0  0  0  0  0  0  0  0
    0.5998    2.9923   -0.9044 Cl  0  0  0  0  0  0  0  0  0  0  0  0
    0.5052    0.3215   -0.2906 C   0  0  0  0  0  0  0  0  0  0  0  0
    1.9118    0.2599   -0.7408 C   0  0  0  0  0  0  0  0  0  0  0  0
    2.3605    0.6495   -1.8005 O   0  0  0  0  0  0  0  0  0  0  0  0
    2.7092   -0.2840    0.2017 O   0  0  0  0  0  0  0  0  0  0  0  0
    1.5485   -2.0068    0.3921 H   0  0  0  0  0  0  0  0  0  0  0  0
    0.1106   -2.7805    0.8316 H   0  0  0  0  0  0  0  0  0  0  0  0
   -3.2620    0.4399    0.6492 H   0  0  0  0  0  0  0  0  0  0  0  0
    3.6042   -0.2166   -0.1977 H   0  0  0  0  0  0  0  0  0  0  0  0
  1  2  1  0
  2  3  2  0
  3  4  1  0
  3  5  1  0
  5  6  2  0
  6  7  1  0
  6  8  1  0
  8  9  1  0
  8 10  2  0
 10 11  1  0
 11 12  2  0
 11 13  1  0
 10  2  1  0
  1 14  1  0
  1 15  1  0
  5 16  1  0
 13 17  1  0
M  END
