
     RDKit          3D

 15 15  0  0  0  0  0  0  0  0999 V2000
   -1.6206    3.0193    0.7882 N   0  0  0  0  0  0  0  0  0  0  0  0
   -0.9629    2.0963    0.5363 C   0  0  0  0  0  0  0  0  0  0  0  0
   -0.1886    0.9381    0.1869 C   0  0  0  0  0  0  0  0  0  0  0  0
   -0.8547   -0.2289   -0.2564 C   0  0  0  0  0  0  0  0  0  0  0  0
   -2.2608   -0.3309   -0.2196 N   0  0  0  0  0  0  0  0  0  0  0  0
   -0.0752   -1.3700   -0.5309 C   0  0  0  0  0  0  0  0  0  0  0  0
   -0.8882   -3.0083   -1.0581 Br  0  0  0  0  0  0  0  0  0  0  0  0
    1.3170   -1.3377   -0.4495 C   0  0  0  0  0  0  0  0  0  0  0  0
    1.9634   -0.1662   -0.0553 C   0  0  0  0  0  0  0  0  0  0  0  0
    3.8633   -0.2208    0.0219 Br  0  0  0  0  0  0  0  0  0  0  0  0
    1.2183    0.9764    0.2703 C   0  0  0  0  0  0  0  0  0  0  0  0
    2.0195    2.4328    0.7809 Cl  0  0  0  0  0  0  0  0  0  0  0  0
   -2.6365   -1.1013   -0.7708 H   0  0  0  0  0  0  0  0  0  0  0  0
   -2.7897    0.5297   -0.3456 H   0  0  0  0  0  0  0  0  0  0  0  0
    1.8957   -2.2284   -0.6862 H   0  0  0  0  0  0  0  0  0  0  0  0
  1  2  3  0
  2  3  1  0
  3  4  2  0
  4  5  1  0
  4  6  1  0
  6  7  1  0
  6  8  2  0
  8  9  1  0
  9 10  1  0
  9 11  2  0
 11 12  1  0
 11  3  1  0
  5 13  1  0
  5 14  1  0
  8 15  1  0
M  END
