
     RDKit          3D

 16 16  0  0  0  0  0  0  0  0999 V2000
   -2.1421    0.7736    0.2846 C   0  0  0  0  0  0  0  0  0  0  0  0
   -0.8537    0.0453    0.0079 C   0  0  0  0  0  0  0  0  0  0  0  0
   -0.8238   -1.2876   -0.4261 C   0  0  0  0  0  0  0  0  0  0  0  0
   -2.3748   -2.3390   -0.7185 Br  0  0  0  0  0  0  0  0  0  0  0  0
    0.4070   -1.8941   -0.6505 C   0  0  0  0  0  0  0  0  0  0  0  0
    1.6004   -1.2877   -0.4699 N   0  0  0  0  0  0  0  0  0  0  0  0
    1.5897   -0.0171   -0.0361 C   0  0  0  0  0  0  0  0  0  0  0  0
    2.8473    0.5762    0.1543 N   0  0  0  0  0  0  0  0  0  0  0  0
    0.3912    0.6780    0.2182 C   0  0  0  0  0  0  0  0  0  0  0  0
    0.4900    2.4746    0.8649 Br  0  0  0  0  0  0  0  0  0  0  0  0
   -2.1414    1.7578   -0.1954 H   0  0  0  0  0  0  0  0  0  0  0  0
   -3.0237    0.2626   -0.1079 H   0  0  0  0  0  0  0  0  0  0  0  0
   -2.2803    0.8934    1.3640 H   0  0  0  0  0  0  0  0  0  0  0  0
    0.4783   -2.9242   -0.9912 H   0  0  0  0  0  0  0  0  0  0  0  0
    2.9275    0.8760    1.1221 H   0  0  0  0  0  0  0  0  0  0  0  0
    2.9083    1.4123   -0.4203 H   0  0  0  0  0  0  0  0  0  0  0  0
  1  2  1  0
  2  3  2  0
  3  4  1  0
  3  5  1  0
  5  6  2  0
  6  7  1  0
  7  8  1  0
  7  9  2  0
  9 10  1  0
  9  2  1  0
  1 11  1  0
  1 12  1  0
  1 13  1  0
  5 14  1  0
  8 15  1  0
  8 16  1  0
M  END
