
     RDKit          3D

 21 21  0  0  0  0  0  0  0  0999 V2000
   -1.9261    0.6530   -1.3065 C   0  0  0  0  0  0  0  0  0  0  0  0
   -1.3633    0.3490    0.0842 C   0  0  0  0  0  0  0  0  0  0  0  0
   -2.1546   -0.7480    0.8007 C   0  0  0  0  0  0  0  0  0  0  0  0
    0.1457    0.1138    0.0915 C   0  0  0  0  0  0  0  0  0  0  0  0
    0.9229    1.0567    0.8027 C   0  0  0  0  0  0  0  0  0  0  0  0
    2.3102    0.9454    0.8791 C   0  0  0  0  0  0  0  0  0  0  0  0
    3.3036    2.2327    1.8428 Br  0  0  0  0  0  0  0  0  0  0  0  0
    2.9661   -0.1038    0.2527 C   0  0  0  0  0  0  0  0  0  0  0  0
    2.2246   -1.0513   -0.4577 C   0  0  0  0  0  0  0  0  0  0  0  0
    3.2211   -2.4526   -1.2813 Br  0  0  0  0  0  0  0  0  0  0  0  0
    0.8192   -0.9541   -0.5455 C   0  0  0  0  0  0  0  0  0  0  0  0
   -0.0560   -2.1555   -1.4392 Cl  0  0  0  0  0  0  0  0  0  0  0  0
   -1.3449    1.4390   -1.8013 H   0  0  0  0  0  0  0  0  0  0  0  0
   -2.9611    1.0042   -1.2273 H   0  0  0  0  0  0  0  0  0  0  0  0
   -1.9351   -0.2204   -1.9627 H   0  0  0  0  0  0  0  0  0  0  0  0
   -1.5517    1.2605    0.6697 H   0  0  0  0  0  0  0  0  0  0  0  0
   -3.1960   -0.4352    0.9377 H   0  0  0  0  0  0  0  0  0  0  0  0
   -2.1748   -1.6895    0.2471 H   0  0  0  0  0  0  0  0  0  0  0  0
   -1.7346   -0.9502    1.7922 H   0  0  0  0  0  0  0  0  0  0  0  0
    0.4365    1.8921    1.3054 H   0  0  0  0  0  0  0  0  0  0  0  0
    4.0483   -0.1857    0.3156 H   0  0  0  0  0  0  0  0  0  0  0  0
  1  2  1  0
  2  3  1  0
  2  4  1  0
  4  5  2  0
  5  6  1  0
  6  7  1  0
  6  8  2  0
  8  9  1  0
  9 10  1  0
  9 11  2  0
 11 12  1  0
 11  4  1  0
  1 13  1  0
  1 14  1  0
  1 15  1  0
  2 16  1  0
  3 17  1  0
  3 18  1  0
  3 19  1  0
  5 20  1  0
  8 21  1  0
M  END
