
     RDKit          3D

 18 18  0  0  0  0  0  0  0  0999 V2000
   -2.5093   -0.4852    0.3267 C   0  0  0  0  0  0  0  0  0  0  0  0
   -1.5989   -0.0641   -0.8178 C   0  0  0  0  0  0  0  0  0  0  0  0
   -0.1600    0.0853   -0.3734 C   0  0  0  0  0  0  0  0  0  0  0  0
    0.6900   -1.0295   -0.5022 C   0  0  0  0  0  0  0  0  0  0  0  0
    2.0213   -0.9590   -0.0967 C   0  0  0  0  0  0  0  0  0  0  0  0
    3.1395   -2.4714   -0.2854 Br  0  0  0  0  0  0  0  0  0  0  0  0
    2.5328    0.2137    0.4470 C   0  0  0  0  0  0  0  0  0  0  0  0
    1.7020    1.3293    0.5900 C   0  0  0  0  0  0  0  0  0  0  0  0
    2.4885    2.8876    1.3496 Br  0  0  0  0  0  0  0  0  0  0  0  0
    0.3556    1.2739    0.1859 C   0  0  0  0  0  0  0  0  0  0  0  0
   -0.6771    2.6565    0.3727 Cl  0  0  0  0  0  0  0  0  0  0  0  0
   -2.1932   -1.4443    0.7510 H   0  0  0  0  0  0  0  0  0  0  0  0
   -2.5101    0.2533    1.1347 H   0  0  0  0  0  0  0  0  0  0  0  0
   -3.5379   -0.5963   -0.0308 H   0  0  0  0  0  0  0  0  0  0  0  0
   -1.6576   -0.8147   -1.6165 H   0  0  0  0  0  0  0  0  0  0  0  0
   -1.9627    0.8629   -1.2743 H   0  0  0  0  0  0  0  0  0  0  0  0
    0.3044   -1.9576   -0.9214 H   0  0  0  0  0  0  0  0  0  0  0  0
    3.5728    0.2597    0.7608 H   0  0  0  0  0  0  0  0  0  0  0  0
  1  2  1  0
  2  3  1  0
  3  4  2  0
  4  5  1  0
  5  6  1  0
  5  7  2  0
  7  8  1  0
  8  9  1  0
  8 10  2  0
 10 11  1  0
 10  3  1  0
  1 12  1  0
  1 13  1  0
  1 14  1  0
  2 15  1  0
  2 16  1  0
  4 17  1  0
  7 18  1  0
M  END
