
     RDKit          3D

 21 21  0  0  0  0  0  0  0  0999 V2000
   -2.0131   -0.4622   -1.2558 C   0  0  0  0  0  0  0  0  0  0  0  0
   -1.4072    0.0724    0.0442 C   0  0  0  0  0  0  0  0  0  0  0  0
   -1.9437   -0.6608    1.2762 C   0  0  0  0  0  0  0  0  0  0  0  0
    0.1166    0.1700    0.0101 C   0  0  0  0  0  0  0  0  0  0  0  0
    0.6628    1.4711    0.0972 C   0  0  0  0  0  0  0  0  0  0  0  0
    2.0401    1.6840    0.0762 C   0  0  0  0  0  0  0  0  0  0  0  0
    2.7199    3.4436    0.1956 Br  0  0  0  0  0  0  0  0  0  0  0  0
    2.9147    0.6130   -0.0318 C   0  0  0  0  0  0  0  0  0  0  0  0
    2.4042   -0.6847   -0.1196 C   0  0  0  0  0  0  0  0  0  0  0  0
    3.6899   -2.0851   -0.2647 Br  0  0  0  0  0  0  0  0  0  0  0  0
    1.0125   -0.9187   -0.0998 C   0  0  0  0  0  0  0  0  0  0  0  0
    0.4286   -2.5480   -0.2116 Cl  0  0  0  0  0  0  0  0  0  0  0  0
   -1.6149    0.0751   -2.1237 H   0  0  0  0  0  0  0  0  0  0  0  0
   -3.1005   -0.3265   -1.2504 H   0  0  0  0  0  0  0  0  0  0  0  0
   -1.8255   -1.5278   -1.4066 H   0  0  0  0  0  0  0  0  0  0  0  0
   -1.7952    1.0973    0.1353 H   0  0  0  0  0  0  0  0  0  0  0  0
   -3.0292   -0.5305    1.3511 H   0  0  0  0  0  0  0  0  0  0  0  0
   -1.7528   -1.7361    1.2486 H   0  0  0  0  0  0  0  0  0  0  0  0
   -1.4966   -0.2637    2.1942 H   0  0  0  0  0  0  0  0  0  0  0  0
    0.0014    2.3326    0.1830 H   0  0  0  0  0  0  0  0  0  0  0  0
    3.9880    0.7850   -0.0477 H   0  0  0  0  0  0  0  0  0  0  0  0
  1  2  1  0
  2  3  1  0
  2  4  1  0
  4  5  2  0
  5  6  1  0
  6  7  1  0
  6  8  2  0
  8  9  1  0
  9 10  1  0
  9 11  2  0
 11 12  1  0
 11  4  1  0
  1 13  1  0
  1 14  1  0
  1 15  1  0
  2 16  1  0
  3 17  1  0
  3 18  1  0
  3 19  1  0
  5 20  1  0
  8 21  1  0
M  END
