
     RDKit          3D

 15 15  0  0  0  0  0  0  0  0999 V2000
    2.6778   -1.2784   -0.6743 F   0  0  0  0  0  0  0  0  0  0  0  0
    2.2340   -0.0986   -0.1503 C   0  0  0  0  0  0  0  0  0  0  0  0
    2.7571    0.8681   -0.9515 F   0  0  0  0  0  0  0  0  0  0  0  0
    2.8544    0.0134    1.0551 F   0  0  0  0  0  0  0  0  0  0  0  0
    0.7314   -0.0318   -0.0490 C   0  0  0  0  0  0  0  0  0  0  0  0
   -0.0397   -1.1303   -0.4794 C   0  0  0  0  0  0  0  0  0  0  0  0
   -1.4299   -1.0972   -0.3979 C   0  0  0  0  0  0  0  0  0  0  0  0
   -2.4390   -2.5839   -0.9821 Br  0  0  0  0  0  0  0  0  0  0  0  0
   -2.0790    0.0218    0.1100 C   0  0  0  0  0  0  0  0  0  0  0  0
   -1.3290    1.1203    0.5414 C   0  0  0  0  0  0  0  0  0  0  0  0
   -2.3057    2.6057    1.2213 Br  0  0  0  0  0  0  0  0  0  0  0  0
    0.0758    1.1016    0.4654 C   0  0  0  0  0  0  0  0  0  0  0  0
    1.0033    2.4653    1.0012 Cl  0  0  0  0  0  0  0  0  0  0  0  0
    0.4536   -2.0161   -0.8805 H   0  0  0  0  0  0  0  0  0  0  0  0
   -3.1649    0.0403    0.1705 H   0  0  0  0  0  0  0  0  0  0  0  0
  1  2  1  0
  2  3  1  0
  2  4  1  0
  2  5  1  0
  5  6  2  0
  6  7  1  0
  7  8  1  0
  7  9  2  0
  9 10  1  0
 10 11  1  0
 10 12  2  0
 12 13  1  0
 12  5  1  0
  6 14  1  0
  9 15  1  0
M  END
