
     RDKit          3D

 12 12  0  0  0  0  0  0  0  0999 V2000
   -2.5468   -1.0992   -0.0054 F   0  0  0  0  0  0  0  0  0  0  0  0
   -1.3222   -0.5533   -0.0028 C   0  0  0  0  0  0  0  0  0  0  0  0
   -0.2163   -1.3980   -0.0010 C   0  0  0  0  0  0  0  0  0  0  0  0
    1.0714   -0.8542    0.0018 C   0  0  0  0  0  0  0  0  0  0  0  0
    2.5253   -2.0755    0.0041 Br  0  0  0  0  0  0  0  0  0  0  0  0
    1.2409    0.5378    0.0026 C   0  0  0  0  0  0  0  0  0  0  0  0
    2.9475    1.3716    0.0063 Br  0  0  0  0  0  0  0  0  0  0  0  0
    0.1214    1.3794    0.0007 C   0  0  0  0  0  0  0  0  0  0  0  0
   -1.1603    0.8299   -0.0019 C   0  0  0  0  0  0  0  0  0  0  0  0
   -2.5284    1.8738   -0.0042 Cl  0  0  0  0  0  0  0  0  0  0  0  0
   -0.3772   -2.4724   -0.0017 H   0  0  0  0  0  0  0  0  0  0  0  0
    0.2446    2.4601    0.0014 H   0  0  0  0  0  0  0  0  0  0  0  0
  1  2  1  0
  2  3  2  0
  3  4  1  0
  4  5  1  0
  4  6  2  0
  6  7  1  0
  6  8  1  0
  8  9  2  0
  9 10  1  0
  9  2  1  0
  3 11  1  0
  8 12  1  0
M  END
