
     RDKit          3D

 14 14  0  0  0  0  0  0  0  0999 V2000
    1.9265   -0.4855    0.2795 C   0  0  0  0  0  0  0  0  0  0  0  0
    0.4735   -0.1548    0.0531 C   0  0  0  0  0  0  0  0  0  0  0  0
   -0.4779   -1.1382   -0.2706 C   0  0  0  0  0  0  0  0  0  0  0  0
   -0.0706   -2.9809   -0.4614 Br  0  0  0  0  0  0  0  0  0  0  0  0
   -1.8049   -0.7614   -0.4607 C   0  0  0  0  0  0  0  0  0  0  0  0
   -2.2586    0.5044   -0.3498 N   0  0  0  0  0  0  0  0  0  0  0  0
   -1.3422    1.4431   -0.0268 C   0  0  0  0  0  0  0  0  0  0  0  0
   -2.0431    3.0123    0.0951 Cl  0  0  0  0  0  0  0  0  0  0  0  0
    0.0137    1.1762    0.1864 C   0  0  0  0  0  0  0  0  0  0  0  0
    1.2157    2.5817    0.6592 Br  0  0  0  0  0  0  0  0  0  0  0  0
    2.5644    0.1409   -0.3532 H   0  0  0  0  0  0  0  0  0  0  0  0
    2.1865   -1.5163    0.0320 H   0  0  0  0  0  0  0  0  0  0  0  0
    2.1872   -0.3301    1.3317 H   0  0  0  0  0  0  0  0  0  0  0  0
   -2.5702   -1.4915   -0.7145 H   0  0  0  0  0  0  0  0  0  0  0  0
  1  2  1  0
  2  3  2  0
  3  4  1  0
  3  5  1  0
  5  6  2  0
  6  7  1  0
  7  8  1  0
  7  9  2  0
  9 10  1  0
  9  2  1  0
  1 11  1  0
  1 12  1  0
  1 13  1  0
  5 14  1  0
M  END
