
     RDKit          3D

 12 12  0  0  0  0  0  0  0  0999 V2000
    0.9682    2.8809    0.1929 Cl  0  0  0  0  0  0  0  0  0  0  0  0
    0.4164    1.2390    0.0830 C   0  0  0  0  0  0  0  0  0  0  0  0
    1.3351    0.1802   -0.0023 C   0  0  0  0  0  0  0  0  0  0  0  0
    3.2200    0.4443   -0.0049 Br  0  0  0  0  0  0  0  0  0  0  0  0
    0.8864   -1.1436   -0.0909 C   0  0  0  0  0  0  0  0  0  0  0  0
   -0.4783   -1.4231   -0.0953 C   0  0  0  0  0  0  0  0  0  0  0  0
   -1.3988   -0.3810   -0.0112 C   0  0  0  0  0  0  0  0  0  0  0  0
   -0.9569    0.9451    0.0777 C   0  0  0  0  0  0  0  0  0  0  0  0
   -2.3020    2.2872    0.1878 Br  0  0  0  0  0  0  0  0  0  0  0  0
    1.5962   -1.9657   -0.1571 H   0  0  0  0  0  0  0  0  0  0  0  0
   -0.8241   -2.4522   -0.1642 H   0  0  0  0  0  0  0  0  0  0  0  0
   -2.4623   -0.6113   -0.0154 H   0  0  0  0  0  0  0  0  0  0  0  0
  1  2  1  0
  2  3  2  0
  3  4  1  0
  3  5  1  0
  5  6  2  0
  6  7  1  0
  7  8  2  0
  8  9  1  0
  8  2  1  0
  5 10  1  0
  6 11  1  0
  7 12  1  0
M  END
