
     RDKit          3D

 12 12  0  0  0  0  0  0  0  0999 V2000
   -2.0212    1.8949    0.1355 F   0  0  0  0  0  0  0  0  0  0  0  0
   -1.0552    0.9675    0.0691 C   0  0  0  0  0  0  0  0  0  0  0  0
    0.2720    1.3842    0.1059 C   0  0  0  0  0  0  0  0  0  0  0  0
    1.2981    0.4373    0.0382 C   0  0  0  0  0  0  0  0  0  0  0  0
    3.0806    1.0890    0.0946 Br  0  0  0  0  0  0  0  0  0  0  0  0
    0.9840   -0.9253   -0.0662 C   0  0  0  0  0  0  0  0  0  0  0  0
    2.3054   -2.2863   -0.1641 Br  0  0  0  0  0  0  0  0  0  0  0  0
   -0.3549   -1.3346   -0.1025 C   0  0  0  0  0  0  0  0  0  0  0  0
   -1.3734   -0.3844   -0.0345 C   0  0  0  0  0  0  0  0  0  0  0  0
   -3.0149   -0.8988   -0.0800 Cl  0  0  0  0  0  0  0  0  0  0  0  0
    0.4861    2.4461    0.1872 H   0  0  0  0  0  0  0  0  0  0  0  0
   -0.6065   -2.3896   -0.1833 H   0  0  0  0  0  0  0  0  0  0  0  0
  1  2  1  0
  2  3  2  0
  3  4  1  0
  4  5  1  0
  4  6  2  0
  6  7  1  0
  6  8  1  0
  8  9  2  0
  9 10  1  0
  9  2  1  0
  3 11  1  0
  8 12  1  0
M  END
