
     RDKit          3D

 18 18  0  0  0  0  0  0  0  0999 V2000
    2.5248    0.0978    0.7149 C   0  0  0  0  0  0  0  0  0  0  0  0
    1.6075    0.4699   -0.4410 C   0  0  0  0  0  0  0  0  0  0  0  0
    0.1595    0.1451   -0.1441 C   0  0  0  0  0  0  0  0  0  0  0  0
   -0.6404    1.1542    0.4248 C   0  0  0  0  0  0  0  0  0  0  0  0
   -1.9771    0.9116    0.7347 C   0  0  0  0  0  0  0  0  0  0  0  0
   -3.0272    2.2874    1.4947 Br  0  0  0  0  0  0  0  0  0  0  0  0
   -2.5436   -0.3344    0.4914 C   0  0  0  0  0  0  0  0  0  0  0  0
   -1.7630   -1.3517   -0.0662 C   0  0  0  0  0  0  0  0  0  0  0  0
   -2.6228   -3.0249   -0.3577 Br  0  0  0  0  0  0  0  0  0  0  0  0
   -0.4119   -1.1227   -0.3842 C   0  0  0  0  0  0  0  0  0  0  0  0
    0.5585   -2.3893   -1.0676 Cl  0  0  0  0  0  0  0  0  0  0  0  0
    3.5605    0.3570    0.4731 H   0  0  0  0  0  0  0  0  0  0  0  0
    2.2466    0.6336    1.6289 H   0  0  0  0  0  0  0  0  0  0  0  0
    2.4865   -0.9745    0.9316 H   0  0  0  0  0  0  0  0  0  0  0  0
    1.9351   -0.0229   -1.3629 H   0  0  0  0  0  0  0  0  0  0  0  0
    1.7057    1.5441   -0.6442 H   0  0  0  0  0  0  0  0  0  0  0  0
   -0.2113    2.1345    0.6267 H   0  0  0  0  0  0  0  0  0  0  0  0
   -3.5874   -0.5148    0.7365 H   0  0  0  0  0  0  0  0  0  0  0  0
  1  2  1  0
  2  3  1  0
  3  4  2  0
  4  5  1  0
  5  6  1  0
  5  7  2  0
  7  8  1  0
  8  9  1  0
  8 10  2  0
 10 11  1  0
 10  3  1  0
  1 12  1  0
  1 13  1  0
  1 14  1  0
  2 15  1  0
  2 16  1  0
  4 17  1  0
  7 18  1  0
M  END
