
     RDKit          3D

 15 15  0  0  0  0  0  0  0  0999 V2000
    2.9009    0.5640   -0.7261 F   0  0  0  0  0  0  0  0  0  0  0  0
    2.2249   -0.2183    0.1578 C   0  0  0  0  0  0  0  0  0  0  0  0
    2.7035    0.0843    1.3946 F   0  0  0  0  0  0  0  0  0  0  0  0
    2.6509   -1.4913   -0.0905 F   0  0  0  0  0  0  0  0  0  0  0  0
    0.7285   -0.0709    0.0518 C   0  0  0  0  0  0  0  0  0  0  0  0
   -0.0552   -1.1958   -0.2757 C   0  0  0  0  0  0  0  0  0  0  0  0
   -1.4401   -1.0899   -0.3807 C   0  0  0  0  0  0  0  0  0  0  0  0
   -2.4663   -2.6140   -0.8211 Br  0  0  0  0  0  0  0  0  0  0  0  0
   -2.0716    0.1290   -0.1637 C   0  0  0  0  0  0  0  0  0  0  0  0
   -1.3090    1.2549    0.1620 C   0  0  0  0  0  0  0  0  0  0  0  0
   -2.2618    2.8788    0.4408 Br  0  0  0  0  0  0  0  0  0  0  0  0
    0.0907    1.1635    0.2717 C   0  0  0  0  0  0  0  0  0  0  0  0
    1.0339    2.5615    0.6758 Cl  0  0  0  0  0  0  0  0  0  0  0  0
    0.4242   -2.1596   -0.4491 H   0  0  0  0  0  0  0  0  0  0  0  0
   -3.1535    0.2039   -0.2475 H   0  0  0  0  0  0  0  0  0  0  0  0
  1  2  1  0
  2  3  1  0
  2  4  1  0
  2  5  1  0
  5  6  2  0
  6  7  1  0
  7  8  1  0
  7  9  2  0
  9 10  1  0
 10 11  1  0
 10 12  2  0
 12 13  1  0
 12  5  1  0
  6 14  1  0
  9 15  1  0
M  END
