
     RDKit          3D

 18 18  0  0  0  0  0  0  0  0999 V2000
   -2.4785   -0.0990   -0.6971 C   0  0  0  0  0  0  0  0  0  0  0  0
   -1.6829   -0.2055    0.5958 C   0  0  0  0  0  0  0  0  0  0  0  0
   -0.1966   -0.0406    0.3633 C   0  0  0  0  0  0  0  0  0  0  0  0
    0.5703   -1.2008    0.1452 C   0  0  0  0  0  0  0  0  0  0  0  0
    1.9411   -1.1131   -0.0897 C   0  0  0  0  0  0  0  0  0  0  0  0
    2.9453   -2.6888   -0.3757 Br  0  0  0  0  0  0  0  0  0  0  0  0
    2.5752    0.1238   -0.1171 C   0  0  0  0  0  0  0  0  0  0  0  0
    1.8289    1.2880    0.0898 C   0  0  0  0  0  0  0  0  0  0  0  0
    2.7817    2.9349    0.0282 Br  0  0  0  0  0  0  0  0  0  0  0  0
    0.4442    1.2162    0.3276 C   0  0  0  0  0  0  0  0  0  0  0  0
   -0.4826    2.6628    0.5750 Cl  0  0  0  0  0  0  0  0  0  0  0  0
   -3.5457   -0.2352   -0.4956 H   0  0  0  0  0  0  0  0  0  0  0  0
   -2.1695   -0.8655   -1.4159 H   0  0  0  0  0  0  0  0  0  0  0  0
   -2.3464    0.8778   -1.1731 H   0  0  0  0  0  0  0  0  0  0  0  0
   -1.8737   -1.1846    1.0538 H   0  0  0  0  0  0  0  0  0  0  0  0
   -2.0448    0.5241    1.3285 H   0  0  0  0  0  0  0  0  0  0  0  0
    0.0888   -2.1774    0.1582 H   0  0  0  0  0  0  0  0  0  0  0  0
    3.6451    0.1828   -0.3012 H   0  0  0  0  0  0  0  0  0  0  0  0
  1  2  1  0
  2  3  1  0
  3  4  2  0
  4  5  1  0
  5  6  1  0
  5  7  2  0
  7  8  1  0
  8  9  1  0
  8 10  2  0
 10 11  1  0
 10  3  1  0
  1 12  1  0
  1 13  1  0
  1 14  1  0
  2 15  1  0
  2 16  1  0
  4 17  1  0
  7 18  1  0
M  END
