
     RDKit          3D

 15 15  0  0  0  0  0  0  0  0999 V2000
    2.7628    1.2725   -0.0848 F   0  0  0  0  0  0  0  0  0  0  0  0
    2.2397    0.0221    0.0778 C   0  0  0  0  0  0  0  0  0  0  0  0
    2.8140   -0.7354   -0.8952 F   0  0  0  0  0  0  0  0  0  0  0  0
    2.7359   -0.4218    1.2640 F   0  0  0  0  0  0  0  0  0  0  0  0
    0.7333    0.0067    0.0256 C   0  0  0  0  0  0  0  0  0  0  0  0
    0.0364    1.2153   -0.1751 C   0  0  0  0  0  0  0  0  0  0  0  0
   -1.3554    1.2319   -0.2279 C   0  0  0  0  0  0  0  0  0  0  0  0
   -2.2641    2.8663   -0.4981 Br  0  0  0  0  0  0  0  0  0  0  0  0
   -2.0796    0.0546   -0.0832 C   0  0  0  0  0  0  0  0  0  0  0  0
   -1.4039   -1.1532    0.1167 C   0  0  0  0  0  0  0  0  0  0  0  0
   -2.4802   -2.7117    0.3041 Br  0  0  0  0  0  0  0  0  0  0  0  0
    0.0015   -1.1858    0.1722 C   0  0  0  0  0  0  0  0  0  0  0  0
    0.8369   -2.6851    0.4201 Cl  0  0  0  0  0  0  0  0  0  0  0  0
    0.5891    2.1481   -0.2905 H   0  0  0  0  0  0  0  0  0  0  0  0
   -3.1664    0.0755   -0.1255 H   0  0  0  0  0  0  0  0  0  0  0  0
  1  2  1  0
  2  3  1  0
  2  4  1  0
  2  5  1  0
  5  6  2  0
  6  7  1  0
  7  8  1  0
  7  9  2  0
  9 10  1  0
 10 11  1  0
 10 12  2  0
 12 13  1  0
 12  5  1  0
  6 14  1  0
  9 15  1  0
M  END
