
     RDKit          3D

 20 20  0  0  0  0  0  0  0  0999 V2000
    4.5456    0.6475   -0.8606 N   0  0  0  0  0  0  0  0  0  0  0  0
    3.9050    0.1637   -0.0226 C   0  0  0  0  0  0  0  0  0  0  0  0
    3.1032   -0.4951    1.0053 C   0  0  0  0  0  0  0  0  0  0  0  0
    1.7163    0.1057    1.0488 C   0  0  0  0  0  0  0  0  0  0  0  0
    1.4398    0.9731    1.8720 O   0  0  0  0  0  0  0  0  0  0  0  0
    0.8547   -0.4296    0.1053 N   0  0  0  0  0  0  0  0  0  0  0  0
   -0.5052   -0.1026   -0.1189 C   0  0  0  0  0  0  0  0  0  0  0  0
   -1.2026    0.8399    0.6423 C   0  0  0  0  0  0  0  0  0  0  0  0
   -2.5476    1.1211    0.3734 C   0  0  0  0  0  0  0  0  0  0  0  0
   -3.2055    0.4602   -0.6599 C   0  0  0  0  0  0  0  0  0  0  0  0
   -5.0211    0.8455   -1.0154 Br  0  0  0  0  0  0  0  0  0  0  0  0
   -2.5347   -0.4826   -1.4316 C   0  0  0  0  0  0  0  0  0  0  0  0
   -1.1919   -0.7601   -1.1595 C   0  0  0  0  0  0  0  0  0  0  0  0
   -0.3245   -2.0624   -2.2451 Br  0  0  0  0  0  0  0  0  0  0  0  0
    3.5630   -0.3786    1.9928 H   0  0  0  0  0  0  0  0  0  0  0  0
    3.0306   -1.5716    0.8154 H   0  0  0  0  0  0  0  0  0  0  0  0
    1.2263   -1.1201   -0.5412 H   0  0  0  0  0  0  0  0  0  0  0  0
   -0.7331    1.3821    1.4576 H   0  0  0  0  0  0  0  0  0  0  0  0
   -3.0668    1.8601    0.9797 H   0  0  0  0  0  0  0  0  0  0  0  0
   -3.0517   -0.9963   -2.2376 H   0  0  0  0  0  0  0  0  0  0  0  0
  1  2  3  0
  2  3  1  0
  3  4  1  0
  4  5  2  0
  4  6  1  0
  6  7  1  0
  7  8  2  0
  8  9  1  0
  9 10  2  0
 10 11  1  0
 10 12  1  0
 12 13  2  0
 13 14  1  0
 13  7  1  0
  3 15  1  0
  3 16  1  0
  6 17  1  0
  8 18  1  0
  9 19  1  0
 12 20  1  0
M  END
