
     RDKit          3D

 39 40  0  0  0  0  0  0  0  0999 V2000
   -4.1627   -0.8563   -2.7769 C   0  0  0  0  0  0  0  0  0  0  0  0
   -2.8358   -1.5336   -2.4555 C   0  0  0  0  0  0  0  0  0  0  0  0
   -2.4869   -1.5265   -0.9617 C   0  0  0  0  0  0  0  0  0  0  0  0
   -2.1935   -0.1239   -0.4142 C   0  0  0  0  0  0  0  0  0  0  0  0
   -1.8755   -0.0968    1.1031 C   0  0  0  0  0  0  0  0  0  0  0  0
   -1.7585    1.3840    1.5512 C   0  0  0  0  0  0  0  0  0  0  0  0
   -1.5724    1.5589    3.0526 C   0  0  0  0  0  0  0  0  0  0  0  0
   -0.6141   -0.9085    1.4659 C   0  0  0  0  0  0  0  0  0  0  0  0
    0.5118   -0.3802    0.7528 O   0  0  0  0  0  0  0  0  0  0  0  0
    1.7363   -0.7185    1.2495 C   0  0  0  0  0  0  0  0  0  0  0  0
    1.8991   -1.4249    2.2366 O   0  0  0  0  0  0  0  0  0  0  0  0
    2.8028   -0.1148    0.4685 C   0  0  0  0  0  0  0  0  0  0  0  0
    4.1443   -0.0364    0.8572 C   0  0  0  0  0  0  0  0  0  0  0  0
    4.9972    0.5889   -0.0793 C   0  0  0  0  0  0  0  0  0  0  0  0
    6.3121    0.8886   -0.1428 C   0  0  0  0  0  0  0  0  0  0  0  0
    6.6411    1.6737   -1.6226 S   0  0  0  0  0  0  0  0  0  0  0  0
    5.0049    1.5750   -2.1316 C   0  0  0  0  0  0  0  0  0  0  0  0
    4.2303    0.9640   -1.1849 C   0  0  0  0  0  0  0  0  0  0  0  0
    2.4685    0.5778   -1.1263 S   0  0  0  0  0  0  0  0  0  0  0  0
    4.3914    2.2417   -3.8126 Br  0  0  0  0  0  0  0  0  0  0  0  0
    7.6344    0.5225    1.1747 Br  0  0  0  0  0  0  0  0  0  0  0  0
    4.5848   -0.5051    2.0361 F   0  0  0  0  0  0  0  0  0  0  0  0
   -4.9809   -1.2938   -2.1987 H   0  0  0  0  0  0  0  0  0  0  0  0
   -4.1306    0.2154   -2.5698 H   0  0  0  0  0  0  0  0  0  0  0  0
   -4.3965   -0.9806   -3.8370 H   0  0  0  0  0  0  0  0  0  0  0  0
   -2.8887   -2.5775   -2.7932 H   0  0  0  0  0  0  0  0  0  0  0  0
   -2.0324   -1.0566   -3.0283 H   0  0  0  0  0  0  0  0  0  0  0  0
   -3.3038   -1.9832   -0.3900 H   0  0  0  0  0  0  0  0  0  0  0  0
   -1.6067   -2.1677   -0.8307 H   0  0  0  0  0  0  0  0  0  0  0  0
   -1.3659    0.3226   -0.9791 H   0  0  0  0  0  0  0  0  0  0  0  0
   -3.0676    0.5156   -0.5888 H   0  0  0  0  0  0  0  0  0  0  0  0
   -2.7252   -0.5448    1.6350 H   0  0  0  0  0  0  0  0  0  0  0  0
   -2.6751    1.9182    1.2606 H   0  0  0  0  0  0  0  0  0  0  0  0
   -0.9300    1.8798    1.0294 H   0  0  0  0  0  0  0  0  0  0  0  0
   -2.3487    1.0242    3.6091 H   0  0  0  0  0  0  0  0  0  0  0  0
   -0.5938    1.1970    3.3830 H   0  0  0  0  0  0  0  0  0  0  0  0
   -1.6345    2.6189    3.3195 H   0  0  0  0  0  0  0  0  0  0  0  0
   -0.4413   -0.8730    2.5491 H   0  0  0  0  0  0  0  0  0  0  0  0
   -0.7379   -1.9643    1.1901 H   0  0  0  0  0  0  0  0  0  0  0  0
  1  2  1  0
  2  3  1  0
  3  4  1  0
  4  5  1  0
  5  6  1  0
  6  7  1  0
  5  8  1  0
  8  9  1  0
  9 10  1  0
 10 11  2  0
 10 12  1  0
 12 13  2  0
 13 14  1  0
 14 15  2  0
 15 16  1  0
 16 17  1  0
 17 18  2  0
 18 19  1  0
 17 20  1  0
 15 21  1  0
 13 22  1  0
 19 12  1  0
 18 14  1  0
  1 23  1  0
  1 24  1  0
  1 25  1  0
  2 26  1  0
  2 27  1  0
  3 28  1  0
  3 29  1  0
  4 30  1  0
  4 31  1  0
  5 32  1  0
  6 33  1  0
  6 34  1  0
  7 35  1  0
  7 36  1  0
  7 37  1  0
  8 38  1  0
  8 39  1  0
M  END
