
     RDKit          3D

 39 40  0  0  0  0  0  0  0  0999 V2000
   -4.8140    2.1746    0.5323 C   0  0  0  0  0  0  0  0  0  0  0  0
   -3.6544    1.2795    0.9422 C   0  0  0  0  0  0  0  0  0  0  0  0
   -3.7483   -0.0949    0.2742 C   0  0  0  0  0  0  0  0  0  0  0  0
   -2.6261   -1.0460    0.7109 C   0  0  0  0  0  0  0  0  0  0  0  0
   -1.2356   -0.6979    0.1326 C   0  0  0  0  0  0  0  0  0  0  0  0
   -0.8848   -1.5318   -1.1227 C   0  0  0  0  0  0  0  0  0  0  0  0
   -1.8345   -1.3336   -2.2940 C   0  0  0  0  0  0  0  0  0  0  0  0
   -0.1603   -0.9161    1.2160 C   0  0  0  0  0  0  0  0  0  0  0  0
    1.1091   -0.4701    0.7182 O   0  0  0  0  0  0  0  0  0  0  0  0
    2.1494   -0.6369    1.5875 C   0  0  0  0  0  0  0  0  0  0  0  0
    2.0322   -1.1169    2.7085 O   0  0  0  0  0  0  0  0  0  0  0  0
    3.3804   -0.1612    0.9695 C   0  0  0  0  0  0  0  0  0  0  0  0
    3.5484    0.3877   -0.3168 C   0  0  0  0  0  0  0  0  0  0  0  0
    4.8906    0.7493   -0.6033 C   0  0  0  0  0  0  0  0  0  0  0  0
    5.5278    1.2923   -1.6620 C   0  0  0  0  0  0  0  0  0  0  0  0
    7.1878    1.4519   -1.3018 S   0  0  0  0  0  0  0  0  0  0  0  0
    6.9914    0.7842    0.2671 C   0  0  0  0  0  0  0  0  0  0  0  0
    5.6874    0.4500    0.5028 C   0  0  0  0  0  0  0  0  0  0  0  0
    4.8600   -0.2756    1.9270 S   0  0  0  0  0  0  0  0  0  0  0  0
    8.4377    0.5571    1.4903 Br  0  0  0  0  0  0  0  0  0  0  0  0
    4.7441    1.8135   -3.3144 Br  0  0  0  0  0  0  0  0  0  0  0  0
   -4.8201    2.3369   -0.5503 H   0  0  0  0  0  0  0  0  0  0  0  0
   -5.7728    1.7313    0.8193 H   0  0  0  0  0  0  0  0  0  0  0  0
   -4.7310    3.1501    1.0217 H   0  0  0  0  0  0  0  0  0  0  0  0
   -3.6599    1.1638    2.0322 H   0  0  0  0  0  0  0  0  0  0  0  0
   -2.7155    1.7750    0.6746 H   0  0  0  0  0  0  0  0  0  0  0  0
   -3.7561    0.0226   -0.8137 H   0  0  0  0  0  0  0  0  0  0  0  0
   -4.7076   -0.5524    0.5472 H   0  0  0  0  0  0  0  0  0  0  0  0
   -2.5966   -1.0463    1.8081 H   0  0  0  0  0  0  0  0  0  0  0  0
   -2.8989   -2.0689    0.4223 H   0  0  0  0  0  0  0  0  0  0  0  0
   -1.1946    0.3582   -0.1599 H   0  0  0  0  0  0  0  0  0  0  0  0
    0.1229   -1.2668   -1.4655 H   0  0  0  0  0  0  0  0  0  0  0  0
   -0.8548   -2.5979   -0.8653 H   0  0  0  0  0  0  0  0  0  0  0  0
   -1.9279   -0.2739   -2.5506 H   0  0  0  0  0  0  0  0  0  0  0  0
   -2.8289   -1.7335   -2.0760 H   0  0  0  0  0  0  0  0  0  0  0  0
   -1.4564   -1.8618   -3.1755 H   0  0  0  0  0  0  0  0  0  0  0  0
   -0.1002   -1.9784    1.4831 H   0  0  0  0  0  0  0  0  0  0  0  0
   -0.4100   -0.3302    2.1089 H   0  0  0  0  0  0  0  0  0  0  0  0
    2.7201    0.5129   -1.0060 H   0  0  0  0  0  0  0  0  0  0  0  0
  1  2  1  0
  2  3  1  0
  3  4  1  0
  4  5  1  0
  5  6  1  0
  6  7  1  0
  5  8  1  0
  8  9  1  0
  9 10  1  0
 10 11  2  0
 10 12  1  0
 12 13  2  0
 13 14  1  0
 14 15  2  0
 15 16  1  0
 16 17  1  0
 17 18  2  0
 18 19  1  0
 17 20  1  0
 15 21  1  0
 19 12  1  0
 18 14  1  0
  1 22  1  0
  1 23  1  0
  1 24  1  0
  2 25  1  0
  2 26  1  0
  3 27  1  0
  3 28  1  0
  4 29  1  0
  4 30  1  0
  5 31  1  0
  6 32  1  0
  6 33  1  0
  7 34  1  0
  7 35  1  0
  7 36  1  0
  8 37  1  0
  8 38  1  0
 13 39  1  0
M  END
