
     RDKit          3D

 78 81  0  0  0  0  0  0  0  0999 V2000
   -6.8220    2.1354   -2.6125 C   0  0  0  0  0  0  0  0  0  0  0  0
   -6.7409    2.4813   -1.1343 C   0  0  0  0  0  0  0  0  0  0  0  0
   -5.3167    2.4505   -0.5770 C   0  0  0  0  0  0  0  0  0  0  0  0
   -4.5797    1.1071   -0.6845 C   0  0  0  0  0  0  0  0  0  0  0  0
   -5.3056   -0.1300   -0.1066 C   0  0  0  0  0  0  0  0  0  0  0  0
   -5.5852    0.0163    1.4028 C   0  0  0  0  0  0  0  0  0  0  0  0
   -6.6917   -0.9107    1.8936 C   0  0  0  0  0  0  0  0  0  0  0  0
   -4.5609   -1.4485   -0.4696 C   0  0  0  0  0  0  0  0  0  0  0  0
   -3.1640   -1.5216   -0.0770 N   0  0  0  0  0  0  0  0  0  0  0  0
   -2.1173   -1.0781   -0.8880 C   0  0  0  0  0  0  0  0  0  0  0  0
   -2.2323   -0.5698   -1.9870 O   0  0  0  0  0  0  0  0  0  0  0  0
   -0.8485   -1.2934   -0.0876 C   0  0  0  0  0  0  0  0  0  0  0  0
    0.3501   -0.7856   -0.4452 C   0  0  0  0  0  0  0  0  0  0  0  0
    1.4436   -0.4854    0.5647 C   0  0  0  0  0  0  0  0  0  0  0  0
    1.4331   -0.6849    1.7645 O   0  0  0  0  0  0  0  0  0  0  0  0
    2.4519    0.1586   -0.1447 N   0  0  0  0  0  0  0  0  0  0  0  0
    3.6889    0.6274    0.4505 C   0  0  0  0  0  0  0  0  0  0  0  0
    4.8915   -0.3076    0.1849 C   0  0  0  0  0  0  0  0  0  0  0  0
    4.7192   -1.7059    0.8240 C   0  0  0  0  0  0  0  0  0  0  0  0
    4.7167   -1.7372    2.3465 C   0  0  0  0  0  0  0  0  0  0  0  0
    6.2195    0.3417    0.6340 C   0  0  0  0  0  0  0  0  0  0  0  0
    6.6676    1.4930   -0.2742 C   0  0  0  0  0  0  0  0  0  0  0  0
    8.0274    2.0413    0.1610 C   0  0  0  0  0  0  0  0  0  0  0  0
    8.4900    3.1703   -0.7466 C   0  0  0  0  0  0  0  0  0  0  0  0
    2.1136    0.2939   -1.4977 C   0  0  0  0  0  0  0  0  0  0  0  0
    2.8850    0.8635   -2.5013 C   0  0  0  0  0  0  0  0  0  0  0  0
    2.3956    0.8125   -3.8032 C   0  0  0  0  0  0  0  0  0  0  0  0
    3.4086    1.5645   -5.2115 Br  0  0  0  0  0  0  0  0  0  0  0  0
    1.1779    0.1858   -4.0853 C   0  0  0  0  0  0  0  0  0  0  0  0
    0.4152   -0.3799   -3.0545 C   0  0  0  0  0  0  0  0  0  0  0  0
    0.8574   -0.2797   -1.7432 C   0  0  0  0  0  0  0  0  0  0  0  0
   -1.2720   -2.0034    1.1408 C   0  0  0  0  0  0  0  0  0  0  0  0
   -0.5745   -2.6566    2.1488 C   0  0  0  0  0  0  0  0  0  0  0  0
   -1.2824   -3.3130    3.1623 C   0  0  0  0  0  0  0  0  0  0  0  0
   -2.6789   -3.3540    3.1318 C   0  0  0  0  0  0  0  0  0  0  0  0
   -3.6170   -4.2595    4.5014 Br  0  0  0  0  0  0  0  0  0  0  0  0
   -3.3874   -2.7641    2.0874 C   0  0  0  0  0  0  0  0  0  0  0  0
   -2.6701   -2.1041    1.1005 C   0  0  0  0  0  0  0  0  0  0  0  0
   -6.5272    1.0991   -2.8003 H   0  0  0  0  0  0  0  0  0  0  0  0
   -7.8493    2.2582   -2.9704 H   0  0  0  0  0  0  0  0  0  0  0  0
   -6.1767    2.7914   -3.2050 H   0  0  0  0  0  0  0  0  0  0  0  0
   -7.1437    3.4914   -0.9919 H   0  0  0  0  0  0  0  0  0  0  0  0
   -7.3905    1.8099   -0.5624 H   0  0  0  0  0  0  0  0  0  0  0  0
   -5.3420    2.7749    0.4693 H   0  0  0  0  0  0  0  0  0  0  0  0
   -4.7182    3.2064   -1.1020 H   0  0  0  0  0  0  0  0  0  0  0  0
   -4.3648    0.9274   -1.7446 H   0  0  0  0  0  0  0  0  0  0  0  0
   -3.6103    1.2272   -0.1856 H   0  0  0  0  0  0  0  0  0  0  0  0
   -6.2784   -0.2002   -0.6101 H   0  0  0  0  0  0  0  0  0  0  0  0
   -5.9115    1.0348    1.6355 H   0  0  0  0  0  0  0  0  0  0  0  0
   -4.6719   -0.1467    1.9829 H   0  0  0  0  0  0  0  0  0  0  0  0
   -6.4762   -1.9621    1.6949 H   0  0  0  0  0  0  0  0  0  0  0  0
   -7.6421   -0.6655    1.4082 H   0  0  0  0  0  0  0  0  0  0  0  0
   -6.8275   -0.7928    2.9732 H   0  0  0  0  0  0  0  0  0  0  0  0
   -4.5900   -1.5513   -1.5627 H   0  0  0  0  0  0  0  0  0  0  0  0
   -5.0959   -2.3216   -0.0832 H   0  0  0  0  0  0  0  0  0  0  0  0
    3.5376    0.7456    1.5292 H   0  0  0  0  0  0  0  0  0  0  0  0
    3.8743    1.6344    0.0635 H   0  0  0  0  0  0  0  0  0  0  0  0
    4.9604   -0.4811   -0.8971 H   0  0  0  0  0  0  0  0  0  0  0  0
    5.5343   -2.3517    0.4729 H   0  0  0  0  0  0  0  0  0  0  0  0
    3.7963   -2.1691    0.4571 H   0  0  0  0  0  0  0  0  0  0  0  0
    3.9114   -1.1306    2.7667 H   0  0  0  0  0  0  0  0  0  0  0  0
    5.6663   -1.3823    2.7570 H   0  0  0  0  0  0  0  0  0  0  0  0
    4.5730   -2.7651    2.6953 H   0  0  0  0  0  0  0  0  0  0  0  0
    6.1292    0.7073    1.6642 H   0  0  0  0  0  0  0  0  0  0  0  0
    7.0087   -0.4210    0.6345 H   0  0  0  0  0  0  0  0  0  0  0  0
    6.7308    1.1391   -1.3101 H   0  0  0  0  0  0  0  0  0  0  0  0
    5.9333    2.3049   -0.2533 H   0  0  0  0  0  0  0  0  0  0  0  0
    7.9664    2.4098    1.1912 H   0  0  0  0  0  0  0  0  0  0  0  0
    8.7756    1.2406    0.1464 H   0  0  0  0  0  0  0  0  0  0  0  0
    9.4654    3.5439   -0.4190 H   0  0  0  0  0  0  0  0  0  0  0  0
    8.5889    2.8261   -1.7808 H   0  0  0  0  0  0  0  0  0  0  0  0
    7.7822    4.0054   -0.7274 H   0  0  0  0  0  0  0  0  0  0  0  0
    3.8447    1.3199   -2.2908 H   0  0  0  0  0  0  0  0  0  0  0  0
    0.8142    0.1210   -5.1086 H   0  0  0  0  0  0  0  0  0  0  0  0
   -0.4960   -0.9022   -3.3205 H   0  0  0  0  0  0  0  0  0  0  0  0
    0.5089   -2.6943    2.1698 H   0  0  0  0  0  0  0  0  0  0  0  0
   -0.7317   -3.8021    3.9627 H   0  0  0  0  0  0  0  0  0  0  0  0
   -4.4641   -2.8486    2.0487 H   0  0  0  0  0  0  0  0  0  0  0  0
  1  2  1  0
  2  3  1  0
  3  4  1  0
  4  5  1  0
  5  6  1  0
  6  7  1  0
  5  8  1  0
  8  9  1  0
  9 10  1  0
 10 11  2  0
 10 12  1  0
 12 13  2  3
 13 14  1  0
 14 15  2  0
 14 16  1  0
 16 17  1  0
 17 18  1  0
 18 19  1  0
 19 20  1  0
 18 21  1  0
 21 22  1  0
 22 23  1  0
 23 24  1  0
 16 25  1  0
 25 26  2  0
 26 27  1  0
 27 28  1  0
 27 29  2  0
 29 30  1  0
 30 31  2  0
 12 32  1  0
 32 33  2  0
 33 34  1  0
 34 35  2  0
 35 36  1  0
 35 37  1  0
 37 38  2  0
 38  9  1  0
 31 13  1  0
 38 32  1  0
 31 25  1  0
  1 39  1  0
  1 40  1  0
  1 41  1  0
  2 42  1  0
  2 43  1  0
  3 44  1  0
  3 45  1  0
  4 46  1  0
  4 47  1  0
  5 48  1  0
  6 49  1  0
  6 50  1  0
  7 51  1  0
  7 52  1  0
  7 53  1  0
  8 54  1  0
  8 55  1  0
 17 56  1  0
 17 57  1  0
 18 58  1  0
 19 59  1  0
 19 60  1  0
 20 61  1  0
 20 62  1  0
 20 63  1  0
 21 64  1  0
 21 65  1  0
 22 66  1  0
 22 67  1  0
 23 68  1  0
 23 69  1  0
 24 70  1  0
 24 71  1  0
 24 72  1  0
 26 73  1  0
 29 74  1  0
 30 75  1  0
 33 76  1  0
 34 77  1  0
 37 78  1  0
M  END
