
     RDKit          3D

 32 34  0  0  0  0  0  0  0  0999 V2000
    0.7357    3.4255   -1.5385 C   0  0  0  0  0  0  0  0  0  0  0  0
   -0.6511    3.4712   -1.4729 C   0  0  0  0  0  0  0  0  0  0  0  0
   -1.3576    2.3849   -0.9564 C   0  0  0  0  0  0  0  0  0  0  0  0
   -0.6937    1.2301   -0.4951 C   0  0  0  0  0  0  0  0  0  0  0  0
    0.7234    1.1847   -0.5593 C   0  0  0  0  0  0  0  0  0  0  0  0
    1.4151    2.2941   -1.0866 C   0  0  0  0  0  0  0  0  0  0  0  0
    1.5048    0.0274   -0.0846 C   0  0  0  0  0  0  0  0  0  0  0  0
    2.2223   -0.7725   -0.9903 C   0  0  0  0  0  0  0  0  0  0  0  0
    2.9543   -1.8776   -0.5491 C   0  0  0  0  0  0  0  0  0  0  0  0
    2.9820   -2.1984    0.8067 C   0  0  0  0  0  0  0  0  0  0  0  0
    2.2799   -1.4094    1.7145 C   0  0  0  0  0  0  0  0  0  0  0  0
    1.5504   -0.3028    1.2792 C   0  0  0  0  0  0  0  0  0  0  0  0
    2.3124   -1.8431    3.5546 Br  0  0  0  0  0  0  0  0  0  0  0  0
   -1.5031    0.1116    0.0239 C   0  0  0  0  0  0  0  0  0  0  0  0
   -2.2288    0.2471    1.2196 C   0  0  0  0  0  0  0  0  0  0  0  0
   -2.9873   -0.8123    1.7236 C   0  0  0  0  0  0  0  0  0  0  0  0
   -3.0339   -2.0240    1.0370 C   0  0  0  0  0  0  0  0  0  0  0  0
   -2.3238   -2.1681   -0.1525 C   0  0  0  0  0  0  0  0  0  0  0  0
   -1.5677   -1.1119   -0.6615 C   0  0  0  0  0  0  0  0  0  0  0  0
   -2.3818   -3.8116   -1.0855 Br  0  0  0  0  0  0  0  0  0  0  0  0
    1.2916    4.2696   -1.9384 H   0  0  0  0  0  0  0  0  0  0  0  0
   -1.1858    4.3495   -1.8250 H   0  0  0  0  0  0  0  0  0  0  0  0
   -2.4449    2.4350   -0.9227 H   0  0  0  0  0  0  0  0  0  0  0  0
    2.5028    2.2809   -1.1365 H   0  0  0  0  0  0  0  0  0  0  0  0
    2.2024   -0.5416   -2.0539 H   0  0  0  0  0  0  0  0  0  0  0  0
    3.4977   -2.4897   -1.2644 H   0  0  0  0  0  0  0  0  0  0  0  0
    3.5493   -3.0618    1.1436 H   0  0  0  0  0  0  0  0  0  0  0  0
    1.0075    0.3056    1.9990 H   0  0  0  0  0  0  0  0  0  0  0  0
   -2.1946    1.1836    1.7735 H   0  0  0  0  0  0  0  0  0  0  0  0
   -3.5368   -0.6925    2.6538 H   0  0  0  0  0  0  0  0  0  0  0  0
   -3.6218   -2.8461    1.4360 H   0  0  0  0  0  0  0  0  0  0  0  0
   -1.0189   -1.2376   -1.5920 H   0  0  0  0  0  0  0  0  0  0  0  0
  1  2  2  0
  2  3  1  0
  3  4  2  0
  4  5  1  0
  5  6  2  0
  5  7  1  0
  7  8  2  0
  8  9  1  0
  9 10  2  0
 10 11  1  0
 11 12  2  0
 11 13  1  0
  4 14  1  0
 14 15  2  0
 15 16  1  0
 16 17  2  0
 17 18  1  0
 18 19  2  0
 18 20  1  0
  6  1  1  0
 12  7  1  0
 19 14  1  0
  1 21  1  0
  2 22  1  0
  3 23  1  0
  6 24  1  0
  8 25  1  0
  9 26  1  0
 10 27  1  0
 12 28  1  0
 15 29  1  0
 16 30  1  0
 17 31  1  0
 19 32  1  0
M  END
