
     RDKit          3D

 16 17  0  0  0  0  0  0  0  0999 V2000
    2.9180   -0.6662    0.1193 C   0  0  0  0  0  0  0  0  0  0  0  0
    3.1201    0.6808   -0.0444 C   0  0  0  0  0  0  0  0  0  0  0  0
    1.6878    1.5575   -0.2726 S   0  0  0  0  0  0  0  0  0  0  0  0
    0.7354    0.1322   -0.1593 C   0  0  0  0  0  0  0  0  0  0  0  0
    1.5326   -0.9731    0.0524 C   0  0  0  0  0  0  0  0  0  0  0  0
    0.9309   -2.7570    0.2391 Br  0  0  0  0  0  0  0  0  0  0  0  0
   -0.6942    0.1968   -0.2662 C   0  0  0  0  0  0  0  0  0  0  0  0
   -1.6343    0.1602    0.7422 C   0  0  0  0  0  0  0  0  0  0  0  0
   -2.9723    0.2322    0.2704 C   0  0  0  0  0  0  0  0  0  0  0  0
   -2.9950    0.3195   -1.0984 C   0  0  0  0  0  0  0  0  0  0  0  0
   -1.4535    0.3155   -1.8027 S   0  0  0  0  0  0  0  0  0  0  0  0
   -4.6068    0.4338   -2.1191 Br  0  0  0  0  0  0  0  0  0  0  0  0
   -1.2713    0.0356    2.5948 Br  0  0  0  0  0  0  0  0  0  0  0  0
    4.8483    1.4966   -0.0175 Br  0  0  0  0  0  0  0  0  0  0  0  0
    3.7125   -1.3851    0.2769 H   0  0  0  0  0  0  0  0  0  0  0  0
   -3.8581    0.2206    0.8933 H   0  0  0  0  0  0  0  0  0  0  0  0
  1  2  2  0
  2  3  1  0
  3  4  1  0
  4  5  2  0
  5  6  1  0
  4  7  1  0
  7  8  2  0
  8  9  1  0
  9 10  2  0
 10 11  1  0
 10 12  1  0
  8 13  1  0
  2 14  1  0
  5  1  1  0
 11  7  1  0
  1 15  1  0
  9 16  1  0
M  END
