
     RDKit          3D

 16 17  0  0  0  0  0  0  0  0999 V2000
    0.8106   -2.7513   -0.1898 Br  0  0  0  0  0  0  0  0  0  0  0  0
    1.4808   -0.9862   -0.0641 C   0  0  0  0  0  0  0  0  0  0  0  0
    2.8788   -0.7403   -0.0925 C   0  0  0  0  0  0  0  0  0  0  0  0
    3.1557    0.6057    0.0083 C   0  0  0  0  0  0  0  0  0  0  0  0
    1.7320    1.5484    0.1356 S   0  0  0  0  0  0  0  0  0  0  0  0
    0.7259    0.1599    0.0538 C   0  0  0  0  0  0  0  0  0  0  0  0
   -0.7024    0.2861    0.1265 C   0  0  0  0  0  0  0  0  0  0  0  0
   -1.6109    0.7518   -1.2536 S   0  0  0  0  0  0  0  0  0  0  0  0
   -3.0895    0.6515   -0.3960 C   0  0  0  0  0  0  0  0  0  0  0  0
   -2.9036    0.2695    0.9147 C   0  0  0  0  0  0  0  0  0  0  0  0
   -1.5296    0.0607    1.2047 C   0  0  0  0  0  0  0  0  0  0  0  0
   -0.9802   -0.4680    2.9364 Br  0  0  0  0  0  0  0  0  0  0  0  0
    3.6465   -1.4991   -0.1815 H   0  0  0  0  0  0  0  0  0  0  0  0
    4.1254    1.0848    0.0142 H   0  0  0  0  0  0  0  0  0  0  0  0
   -4.0220    0.8772   -0.8953 H   0  0  0  0  0  0  0  0  0  0  0  0
   -3.7176    0.1494    1.6191 H   0  0  0  0  0  0  0  0  0  0  0  0
  1  2  1  0
  2  3  1  0
  3  4  2  0
  4  5  1  0
  5  6  1  0
  6  7  1  0
  7  8  1  0
  8  9  1  0
  9 10  2  0
 10 11  1  0
 11 12  1  0
  6  2  2  0
 11  7  2  0
  3 13  1  0
  4 14  1  0
  9 15  1  0
 10 16  1  0
M  END
