
     RDKit          3D

 32 34  0  0  0  0  0  0  0  0999 V2000
   -0.7094   -2.4670    2.8109 C   0  0  0  0  0  0  0  0  0  0  0  0
    0.6774   -2.5316    2.7610 C   0  0  0  0  0  0  0  0  0  0  0  0
    1.3754   -1.7565    1.8347 C   0  0  0  0  0  0  0  0  0  0  0  0
    0.7023   -0.9013    0.9391 C   0  0  0  0  0  0  0  0  0  0  0  0
   -0.7134   -0.8320    0.9931 C   0  0  0  0  0  0  0  0  0  0  0  0
   -1.3971   -1.6260    1.9358 C   0  0  0  0  0  0  0  0  0  0  0  0
   -1.5005    0.0463    0.1092 C   0  0  0  0  0  0  0  0  0  0  0  0
   -1.4683    1.4421    0.2631 C   0  0  0  0  0  0  0  0  0  0  0  0
   -2.2113    2.2747   -0.5772 C   0  0  0  0  0  0  0  0  0  0  0  0
   -3.0022    1.7225   -1.5828 C   0  0  0  0  0  0  0  0  0  0  0  0
   -3.0466    0.3394   -1.7412 C   0  0  0  0  0  0  0  0  0  0  0  0
   -2.3068   -0.4966   -0.9040 C   0  0  0  0  0  0  0  0  0  0  0  0
   -4.1171   -0.4133   -3.1060 Br  0  0  0  0  0  0  0  0  0  0  0  0
    1.5001   -0.1222   -0.0246 C   0  0  0  0  0  0  0  0  0  0  0  0
    1.4756   -0.4267   -1.3956 C   0  0  0  0  0  0  0  0  0  0  0  0
    2.2287    0.3143   -2.3094 C   0  0  0  0  0  0  0  0  0  0  0  0
    3.0221    1.3699   -1.8644 C   0  0  0  0  0  0  0  0  0  0  0  0
    3.0587    1.6774   -0.5064 C   0  0  0  0  0  0  0  0  0  0  0  0
    2.3089    0.9398    0.4105 C   0  0  0  0  0  0  0  0  0  0  0  0
    4.1324    3.1105    0.1008 Br  0  0  0  0  0  0  0  0  0  0  0  0
   -1.2584   -3.0679    3.5313 H   0  0  0  0  0  0  0  0  0  0  0  0
    1.2184   -3.1859    3.4397 H   0  0  0  0  0  0  0  0  0  0  0  0
    2.4616   -1.8275    1.8037 H   0  0  0  0  0  0  0  0  0  0  0  0
   -2.4834   -1.5813    1.9961 H   0  0  0  0  0  0  0  0  0  0  0  0
   -0.8555    1.8890    1.0440 H   0  0  0  0  0  0  0  0  0  0  0  0
   -2.1696    3.3530   -0.4465 H   0  0  0  0  0  0  0  0  0  0  0  0
   -3.5763    2.3756   -2.2344 H   0  0  0  0  0  0  0  0  0  0  0  0
   -2.3456   -1.5749   -1.0411 H   0  0  0  0  0  0  0  0  0  0  0  0
    0.8611   -1.2483   -1.7592 H   0  0  0  0  0  0  0  0  0  0  0  0
    2.1930    0.0675   -3.3674 H   0  0  0  0  0  0  0  0  0  0  0  0
    3.6040    1.9438   -2.5805 H   0  0  0  0  0  0  0  0  0  0  0  0
    2.3418    1.1931    1.4678 H   0  0  0  0  0  0  0  0  0  0  0  0
  1  2  2  0
  2  3  1  0
  3  4  2  0
  4  5  1  0
  5  6  2  0
  5  7  1  0
  7  8  2  0
  8  9  1  0
  9 10  2  0
 10 11  1  0
 11 12  2  0
 11 13  1  0
  4 14  1  0
 14 15  2  0
 15 16  1  0
 16 17  2  0
 17 18  1  0
 18 19  2  0
 18 20  1  0
  6  1  1  0
 12  7  1  0
 19 14  1  0
  1 21  1  0
  2 22  1  0
  3 23  1  0
  6 24  1  0
  8 25  1  0
  9 26  1  0
 10 27  1  0
 12 28  1  0
 15 29  1  0
 16 30  1  0
 17 31  1  0
 19 32  1  0
M  END
