
     RDKit          3D

 40 41  0  0  0  0  0  0  0  0999 V2000
    6.0591   -0.2727   -0.7257 C   0  0  0  0  0  0  0  0  0  0  0  0
    4.7497   -0.6581    0.5354 Si  0  0  0  0  0  4  0  0  0  0  0  0
    5.0908    0.1791    2.1529 C   0  0  0  0  0  0  0  0  0  0  0  0
    4.4811   -2.4835    0.7061 C   0  0  0  0  0  0  0  0  0  0  0  0
    3.1541    0.0720   -0.1351 C   0  0  0  0  0  0  0  0  0  0  0  0
    2.8556    0.7722   -1.2942 C   0  0  0  0  0  0  0  0  0  0  0  0
    1.4827    1.1272   -1.3662 C   0  0  0  0  0  0  0  0  0  0  0  0
    0.8131    2.0888   -2.8518 Br  0  0  0  0  0  0  0  0  0  0  0  0
    0.7509    0.7018   -0.2822 C   0  0  0  0  0  0  0  0  0  0  0  0
   -0.6466    0.8947   -0.0178 C   0  0  0  0  0  0  0  0  0  0  0  0
   -1.7751   -0.3541   -0.3359 S   0  0  0  0  0  0  0  0  0  0  0  0
   -3.1098    0.6053    0.1881 C   0  0  0  0  0  0  0  0  0  0  0  0
   -4.8056   -0.1985    0.1066 Si  0  0  0  0  0  4  0  0  0  0  0  0
   -6.0067    1.0749    0.7307 C   0  0  0  0  0  0  0  0  0  0  0  0
   -5.1197   -0.6218   -1.6698 C   0  0  0  0  0  0  0  0  0  0  0  0
   -4.7535   -1.6872    1.2086 C   0  0  0  0  0  0  0  0  0  0  0  0
   -2.6837    1.8601    0.5965 C   0  0  0  0  0  0  0  0  0  0  0  0
   -1.2775    2.0138    0.4731 C   0  0  0  0  0  0  0  0  0  0  0  0
   -0.4391    3.6368    0.9661 Br  0  0  0  0  0  0  0  0  0  0  0  0
    1.7432   -0.1337    0.8364 S   0  0  0  0  0  0  0  0  0  0  0  0
    5.8194   -0.7182   -1.6962 H   0  0  0  0  0  0  0  0  0  0  0  0
    6.1690    0.8070   -0.8672 H   0  0  0  0  0  0  0  0  0  0  0  0
    7.0296   -0.6672   -0.4091 H   0  0  0  0  0  0  0  0  0  0  0  0
    4.3185   -0.0456    2.8949 H   0  0  0  0  0  0  0  0  0  0  0  0
    5.1373    1.2663    2.0353 H   0  0  0  0  0  0  0  0  0  0  0  0
    6.0493   -0.1507    2.5657 H   0  0  0  0  0  0  0  0  0  0  0  0
    3.7083   -2.7106    1.4469 H   0  0  0  0  0  0  0  0  0  0  0  0
    4.1761   -2.9307   -0.2452 H   0  0  0  0  0  0  0  0  0  0  0  0
    5.4009   -2.9825    1.0269 H   0  0  0  0  0  0  0  0  0  0  0  0
    3.5924    1.0160   -2.0512 H   0  0  0  0  0  0  0  0  0  0  0  0
   -5.7771    1.3667    1.7602 H   0  0  0  0  0  0  0  0  0  0  0  0
   -5.9871    1.9769    0.1112 H   0  0  0  0  0  0  0  0  0  0  0  0
   -7.0285    0.6832    0.7159 H   0  0  0  0  0  0  0  0  0  0  0  0
   -4.4110   -1.3698   -2.0383 H   0  0  0  0  0  0  0  0  0  0  0  0
   -6.1265   -1.0313   -1.7987 H   0  0  0  0  0  0  0  0  0  0  0  0
   -5.0374    0.2625   -2.3094 H   0  0  0  0  0  0  0  0  0  0  0  0
   -4.0445   -2.4361    0.8427 H   0  0  0  0  0  0  0  0  0  0  0  0
   -5.7371   -2.1644    1.2626 H   0  0  0  0  0  0  0  0  0  0  0  0
   -4.4601   -1.4168    2.2278 H   0  0  0  0  0  0  0  0  0  0  0  0
   -3.3544    2.6281    0.9649 H   0  0  0  0  0  0  0  0  0  0  0  0
  1  2  1  0
  2  3  1  0
  2  4  1  0
  2  5  1  0
  5  6  2  0
  6  7  1  0
  7  8  1  0
  7  9  2  0
  9 10  1  0
 10 11  1  0
 11 12  1  0
 12 13  1  0
 13 14  1  0
 13 15  1  0
 13 16  1  0
 12 17  2  0
 17 18  1  0
 18 19  1  0
  9 20  1  0
 20  5  1  0
 18 10  2  0
  1 21  1  0
  1 22  1  0
  1 23  1  0
  3 24  1  0
  3 25  1  0
  3 26  1  0
  4 27  1  0
  4 28  1  0
  4 29  1  0
  6 30  1  0
 14 31  1  0
 14 32  1  0
 14 33  1  0
 15 34  1  0
 15 35  1  0
 15 36  1  0
 16 37  1  0
 16 38  1  0
 16 39  1  0
 17 40  1  0
M  END
