
     RDKit          3D

 11 11  0  0  0  0  0  0  0  0999 V2000
    2.9076    1.1712    0.2618 Br  0  0  0  0  0  0  0  0  0  0  0  0
    1.2001    0.3599    0.1071 C   0  0  0  0  0  0  0  0  0  0  0  0
    1.1490   -1.0287    0.0916 C   0  0  0  0  0  0  0  0  0  0  0  0
    0.0066   -1.7435   -0.0133 N   0  0  0  0  0  0  0  0  0  0  0  0
   -1.1412   -1.0358   -0.1074 C   0  0  0  0  0  0  0  0  0  0  0  0
   -1.2028    0.3524   -0.1017 C   0  0  0  0  0  0  0  0  0  0  0  0
   -2.9164    1.1531   -0.2441 Br  0  0  0  0  0  0  0  0  0  0  0  0
   -0.0040    1.0687    0.0081 C   0  0  0  0  0  0  0  0  0  0  0  0
   -0.0112    2.9777    0.0227 Br  0  0  0  0  0  0  0  0  0  0  0  0
    2.0515   -1.6311    0.1652 H   0  0  0  0  0  0  0  0  0  0  0  0
   -2.0391   -1.6439   -0.1901 H   0  0  0  0  0  0  0  0  0  0  0  0
  1  2  1  0
  2  3  2  0
  3  4  1  0
  4  5  2  0
  5  6  1  0
  6  7  1  0
  6  8  2  0
  8  9  1  0
  8  2  1  0
  3 10  1  0
  5 11  1  0
M  END
