
     RDKit          3D

 17 17  0  0  0  0  0  0  0  0999 V2000
    2.3419   -1.2485   -0.0220 C   0  0  0  0  0  0  0  0  0  0  0  0
    1.1524   -0.3327    0.0404 C   0  0  0  0  0  0  0  0  0  0  0  0
   -0.0426   -0.9370   -0.1741 N   0  0  0  0  0  0  0  0  0  0  0  0
   -1.1764   -0.1936   -0.1381 C   0  0  0  0  0  0  0  0  0  0  0  0
   -2.4425   -0.9628   -0.3888 C   0  0  0  0  0  0  0  0  0  0  0  0
   -1.1599    1.1805    0.1131 C   0  0  0  0  0  0  0  0  0  0  0  0
   -2.8038    2.1520    0.1458 Br  0  0  0  0  0  0  0  0  0  0  0  0
    0.0820    1.8023    0.3348 C   0  0  0  0  0  0  0  0  0  0  0  0
    0.1677    3.6861    0.6848 Br  0  0  0  0  0  0  0  0  0  0  0  0
    1.2607    1.0359    0.2987 C   0  0  0  0  0  0  0  0  0  0  0  0
    2.9838    1.8063    0.5895 Br  0  0  0  0  0  0  0  0  0  0  0  0
    2.0276   -2.2760   -0.2363 H   0  0  0  0  0  0  0  0  0  0  0  0
    3.0245   -0.9416   -0.8204 H   0  0  0  0  0  0  0  0  0  0  0  0
    2.8708   -1.2609    0.9359 H   0  0  0  0  0  0  0  0  0  0  0  0
   -3.1084   -0.9037    0.4776 H   0  0  0  0  0  0  0  0  0  0  0  0
   -2.9547   -0.5844   -1.2787 H   0  0  0  0  0  0  0  0  0  0  0  0
   -2.2231   -2.0221   -0.5622 H   0  0  0  0  0  0  0  0  0  0  0  0
  1  2  1  0
  2  3  2  0
  3  4  1  0
  4  5  1  0
  4  6  2  0
  6  7  1  0
  6  8  1  0
  8  9  1  0
  8 10  2  0
 10 11  1  0
 10  2  1  0
  1 12  1  0
  1 13  1  0
  1 14  1  0
  5 15  1  0
  5 16  1  0
  5 17  1  0
M  END
