
     RDKit          3D

 10 10  0  0  0  0  0  0  0  0999 V2000
   -2.1717    1.9101   -0.0952 Br  0  0  0  0  0  0  0  0  0  0  0  0
   -0.8609    0.5385   -0.0417 C   0  0  0  0  0  0  0  0  0  0  0  0
   -1.3096   -0.7694   -0.0921 C   0  0  0  0  0  0  0  0  0  0  0  0
   -0.4741   -1.8233   -0.0613 N   0  0  0  0  0  0  0  0  0  0  0  0
    0.8660   -1.6030    0.0228 N   0  0  0  0  0  0  0  0  0  0  0  0
    1.3498   -0.3387    0.0745 C   0  0  0  0  0  0  0  0  0  0  0  0
    3.2462   -0.2105    0.1901 Br  0  0  0  0  0  0  0  0  0  0  0  0
    0.5127    0.7724    0.0446 C   0  0  0  0  0  0  0  0  0  0  0  0
    1.2036    2.5471    0.1179 Br  0  0  0  0  0  0  0  0  0  0  0  0
   -2.3621   -1.0234   -0.1596 H   0  0  0  0  0  0  0  0  0  0  0  0
  1  2  1  0
  2  3  2  0
  3  4  1  0
  4  5  2  0
  5  6  1  0
  6  7  1  0
  6  8  2  0
  8  9  1  0
  8  2  1  0
  3 10  1  0
M  END
