
     RDKit          3D

  9  9  0  0  0  0  0  0  0  0999 V2000
    2.9676   -0.7497   -0.1009 Br  0  0  0  0  0  0  0  0  0  0  0  0
    1.1025   -0.4959   -0.0600 C   0  0  0  0  0  0  0  0  0  0  0  0
    0.2475   -1.5205   -0.1592 N   0  0  0  0  0  0  0  0  0  0  0  0
   -0.9573   -0.9235   -0.0880 N   0  0  0  0  0  0  0  0  0  0  0  0
   -0.8861    0.4305    0.0515 C   0  0  0  0  0  0  0  0  0  0  0  0
   -2.3773    1.5907    0.1833 Br  0  0  0  0  0  0  0  0  0  0  0  0
    0.4480    0.7416    0.0732 C   0  0  0  0  0  0  0  0  0  0  0  0
    1.2455    2.4269    0.2412 Br  0  0  0  0  0  0  0  0  0  0  0  0
   -1.7904   -1.5000   -0.1410 H   0  0  0  0  0  0  0  0  0  0  0  0
  1  2  1  0
  2  3  2  0
  3  4  1  0
  4  5  1  0
  5  6  1  0
  5  7  2  0
  7  8  1  0
  7  2  1  0
  4  9  1  0
M  END
