
     RDKit          3D

 10 10  0  0  0  0  0  0  0  0999 V2000
    3.3183    0.1744    0.0229 Br  0  0  0  0  0  0  0  0  0  0  0  0
    1.4623   -0.1855   -0.0249 C   0  0  0  0  0  0  0  0  0  0  0  0
    0.5620    0.8520    0.1132 C   0  0  0  0  0  0  0  0  0  0  0  0
   -0.8004    0.5559    0.0740 C   0  0  0  0  0  0  0  0  0  0  0  0
   -2.0127    2.0028    0.2667 Br  0  0  0  0  0  0  0  0  0  0  0  0
   -1.1969   -0.7635   -0.1014 C   0  0  0  0  0  0  0  0  0  0  0  0
   -3.0175   -1.2970   -0.1722 Br  0  0  0  0  0  0  0  0  0  0  0  0
   -0.2833   -1.7507   -0.2328 N   0  0  0  0  0  0  0  0  0  0  0  0
    1.0581   -1.4589   -0.1941 N   0  0  0  0  0  0  0  0  0  0  0  0
    0.9101    1.8705    0.2486 H   0  0  0  0  0  0  0  0  0  0  0  0
  1  2  1  0
  2  3  2  0
  3  4  1  0
  4  5  1  0
  4  6  2  0
  6  7  1  0
  6  8  1  0
  8  9  2  0
  9  2  1  0
  3 10  1  0
M  END
