
     RDKit          3D

 10 10  0  0  0  0  0  0  0  0999 V2000
   -2.1104    1.9355   -0.4174 Br  0  0  0  0  0  0  0  0  0  0  0  0
   -0.8393    0.5485   -0.1660 C   0  0  0  0  0  0  0  0  0  0  0  0
   -1.2964   -0.7542   -0.2566 C   0  0  0  0  0  0  0  0  0  0  0  0
   -0.4885   -1.8179   -0.0968 N   0  0  0  0  0  0  0  0  0  0  0  0
    0.8311   -1.6132    0.1643 N   0  0  0  0  0  0  0  0  0  0  0  0
    1.3222   -0.3543    0.2616 C   0  0  0  0  0  0  0  0  0  0  0  0
    3.1874   -0.2482    0.6306 Br  0  0  0  0  0  0  0  0  0  0  0  0
    0.5134    0.7665    0.1016 C   0  0  0  0  0  0  0  0  0  0  0  0
    1.2144    2.5334    0.2405 Br  0  0  0  0  0  0  0  0  0  0  0  0
   -2.3339   -0.9960   -0.4618 H   0  0  0  0  0  0  0  0  0  0  0  0
  1  2  1  0
  2  3  2  0
  3  4  1  0
  4  5  2  0
  5  6  1  0
  6  7  1  0
  6  8  2  0
  8  9  1  0
  8  2  1  0
  3 10  1  0
M  END
