
     RDKit          3D

 17 17  0  0  0  0  0  0  0  0999 V2000
   -2.5005   -0.8741   -0.1643 C   0  0  0  0  0  0  0  0  0  0  0  0
   -1.1892   -0.1471   -0.0668 C   0  0  0  0  0  0  0  0  0  0  0  0
   -0.0951   -0.9481   -0.0448 N   0  0  0  0  0  0  0  0  0  0  0  0
    1.1358   -0.3854    0.0417 C   0  0  0  0  0  0  0  0  0  0  0  0
    2.2762   -1.3636    0.0586 C   0  0  0  0  0  0  0  0  0  0  0  0
    1.3208    0.9976    0.1094 C   0  0  0  0  0  0  0  0  0  0  0  0
    3.0900    1.7067    0.2294 Br  0  0  0  0  0  0  0  0  0  0  0  0
    0.1829    1.8238    0.0861 C   0  0  0  0  0  0  0  0  0  0  0  0
    0.3740    3.7301    0.1761 Br  0  0  0  0  0  0  0  0  0  0  0  0
   -1.0960    1.2453   -0.0034 C   0  0  0  0  0  0  0  0  0  0  0  0
   -2.6884    2.2988   -0.0403 Br  0  0  0  0  0  0  0  0  0  0  0  0
   -3.0329   -0.5901   -1.0773 H   0  0  0  0  0  0  0  0  0  0  0  0
   -2.3400   -1.9572   -0.2017 H   0  0  0  0  0  0  0  0  0  0  0  0
   -3.1240   -0.6654    0.7105 H   0  0  0  0  0  0  0  0  0  0  0  0
    1.9039   -2.3921   -0.0036 H   0  0  0  0  0  0  0  0  0  0  0  0
    2.8456   -1.2771    0.9891 H   0  0  0  0  0  0  0  0  0  0  0  0
    2.9368   -1.2019   -0.7987 H   0  0  0  0  0  0  0  0  0  0  0  0
  1  2  1  0
  2  3  2  0
  3  4  1  0
  4  5  1  0
  4  6  2  0
  6  7  1  0
  6  8  1  0
  8  9  1  0
  8 10  2  0
 10 11  1  0
 10  2  1  0
  1 12  1  0
  1 13  1  0
  1 14  1  0
  5 15  1  0
  5 16  1  0
  5 17  1  0
M  END
