
     RDKit          3D

 14 14  0  0  0  0  0  0  0  0999 V2000
   -2.5678   -1.8709   -0.1412 O   0  0  0  0  0  0  0  0  0  0  0  0
   -2.3027   -0.6798   -0.3535 N   0  0  0  0  0  4  0  0  0  0  0  0
   -3.1234    0.1693   -0.7275 O   0  0  0  0  0  1  0  0  0  0  0  0
   -0.9158   -0.2426   -0.1469 C   0  0  0  0  0  0  0  0  0  0  0  0
   -0.5688    1.0943   -0.3763 C   0  0  0  0  0  0  0  0  0  0  0  0
    0.7518    1.5052   -0.1784 C   0  0  0  0  0  0  0  0  0  0  0  0
    1.7227    0.5890    0.2460 C   0  0  0  0  0  0  0  0  0  0  0  0
    3.4870    1.2497    0.4848 Br  0  0  0  0  0  0  0  0  0  0  0  0
    1.3690   -0.7479    0.4739 C   0  0  0  0  0  0  0  0  0  0  0  0
    2.6143   -2.0620    1.0501 Br  0  0  0  0  0  0  0  0  0  0  0  0
    0.0476   -1.1671    0.2777 C   0  0  0  0  0  0  0  0  0  0  0  0
   -1.3070    1.8234   -0.7065 H   0  0  0  0  0  0  0  0  0  0  0  0
    1.0153    2.5461   -0.3584 H   0  0  0  0  0  0  0  0  0  0  0  0
   -0.2223   -2.2067    0.4561 H   0  0  0  0  0  0  0  0  0  0  0  0
  1  2  2  0
  2  3  1  0
  2  4  1  0
  4  5  2  0
  5  6  1  0
  6  7  2  0
  7  8  1  0
  7  9  1  0
  9 10  1  0
  9 11  2  0
 11  4  1  0
  5 12  1  0
  6 13  1  0
 11 14  1  0
M  CHG  2   2   1   3  -1
M  END
