
     RDKit          3D

 16 16  0  0  0  0  0  0  0  0999 V2000
   -2.7586    0.0129   -0.3134 C   0  0  0  0  0  0  0  0  0  0  0  0
   -1.5859   -0.1865   -1.0932 O   0  0  0  0  0  0  0  0  0  0  0  0
   -0.3853   -0.0839   -0.4474 C   0  0  0  0  0  0  0  0  0  0  0  0
   -0.2039    0.1982    0.9056 C   0  0  0  0  0  0  0  0  0  0  0  0
    1.0872    0.2743    1.4392 C   0  0  0  0  0  0  0  0  0  0  0  0
    2.2051    0.0691    0.6245 C   0  0  0  0  0  0  0  0  0  0  0  0
    3.9125    0.1944    1.4458 Br  0  0  0  0  0  0  0  0  0  0  0  0
    2.0270   -0.2138   -0.7322 C   0  0  0  0  0  0  0  0  0  0  0  0
    3.4721   -0.5095   -1.9288 Br  0  0  0  0  0  0  0  0  0  0  0  0
    0.7332   -0.2887   -1.2603 C   0  0  0  0  0  0  0  0  0  0  0  0
   -3.6231   -0.1026   -0.9742 H   0  0  0  0  0  0  0  0  0  0  0  0
   -2.7890    1.0258    0.1014 H   0  0  0  0  0  0  0  0  0  0  0  0
   -2.8399   -0.7411    0.4766 H   0  0  0  0  0  0  0  0  0  0  0  0
   -1.0426    0.3643    1.5741 H   0  0  0  0  0  0  0  0  0  0  0  0
    1.2088    0.4955    2.4974 H   0  0  0  0  0  0  0  0  0  0  0  0
    0.5825   -0.5084   -2.3152 H   0  0  0  0  0  0  0  0  0  0  0  0
  1  2  1  0
  2  3  1  0
  3  4  2  0
  4  5  1  0
  5  6  2  0
  6  7  1  0
  6  8  1  0
  8  9  1  0
  8 10  2  0
 10  3  1  0
  1 11  1  0
  1 12  1  0
  1 13  1  0
  4 14  1  0
  5 15  1  0
 10 16  1  0
M  END
