
     RDKit          3D

 12 12  0  0  0  0  0  0  0  0999 V2000
   -2.9958   -0.9736    0.1123 Cl  0  0  0  0  0  0  0  0  0  0  0  0
   -1.3700   -0.4151    0.0495 C   0  0  0  0  0  0  0  0  0  0  0  0
   -1.1125    0.9510   -0.0372 C   0  0  0  0  0  0  0  0  0  0  0  0
    0.2070    1.4051   -0.0881 C   0  0  0  0  0  0  0  0  0  0  0  0
    1.2679    0.4925   -0.0523 C   0  0  0  0  0  0  0  0  0  0  0  0
    3.0261    1.2060   -0.1267 Br  0  0  0  0  0  0  0  0  0  0  0  0
    1.0018   -0.8799    0.0349 C   0  0  0  0  0  0  0  0  0  0  0  0
    2.3688   -2.1979    0.0896 Br  0  0  0  0  0  0  0  0  0  0  0  0
   -0.3214   -1.3324    0.0858 C   0  0  0  0  0  0  0  0  0  0  0  0
   -1.9311    1.6661   -0.0654 H   0  0  0  0  0  0  0  0  0  0  0  0
    0.3974    2.4741   -0.1558 H   0  0  0  0  0  0  0  0  0  0  0  0
   -0.5379   -2.3958    0.1535 H   0  0  0  0  0  0  0  0  0  0  0  0
  1  2  1  0
  2  3  2  0
  3  4  1  0
  4  5  2  0
  5  6  1  0
  5  7  1  0
  7  8  1  0
  7  9  2  0
  9  2  1  0
  3 10  1  0
  4 11  1  0
  9 12  1  0
M  END
