
     RDKit          3D

 14 14  0  0  0  0  0  0  0  0999 V2000
    2.3819    0.1227    0.2457 N   0  0  0  0  0  0  0  0  0  0  0  0
    0.9836    0.0242    0.1695 C   0  0  0  0  0  0  0  0  0  0  0  0
    0.3702   -1.2275    0.2208 C   0  0  0  0  0  0  0  0  0  0  0  0
   -1.0079   -1.3500    0.0207 C   0  0  0  0  0  0  0  0  0  0  0  0
   -1.7855   -0.2230   -0.2714 C   0  0  0  0  0  0  0  0  0  0  0  0
   -3.6478   -0.5032   -0.5227 Br  0  0  0  0  0  0  0  0  0  0  0  0
   -1.1796    1.0320   -0.3774 C   0  0  0  0  0  0  0  0  0  0  0  0
   -2.1484    2.6122   -0.7954 Br  0  0  0  0  0  0  0  0  0  0  0  0
    0.1999    1.1373   -0.1742 C   0  0  0  0  0  0  0  0  0  0  0  0
    0.8085    2.3320   -0.2841 F   0  0  0  0  0  0  0  0  0  0  0  0
    2.8263   -0.5712    0.8378 H   0  0  0  0  0  0  0  0  0  0  0  0
    2.7023    1.0709    0.4361 H   0  0  0  0  0  0  0  0  0  0  0  0
    0.9604   -2.1205    0.4124 H   0  0  0  0  0  0  0  0  0  0  0  0
   -1.4639   -2.3362    0.0821 H   0  0  0  0  0  0  0  0  0  0  0  0
  1  2  1  0
  2  3  2  0
  3  4  1  0
  4  5  2  0
  5  6  1  0
  5  7  1  0
  7  8  1  0
  7  9  2  0
  9 10  1  0
  9  2  1  0
  1 11  1  0
  1 12  1  0
  3 13  1  0
  4 14  1  0
M  END
