
     RDKit          3D

 12 12  0  0  0  0  0  0  0  0999 V2000
    3.0673    0.7248   -0.0379 Cl  0  0  0  0  0  0  0  0  0  0  0  0
    1.4002    0.3014   -0.0167 C   0  0  0  0  0  0  0  0  0  0  0  0
    1.0295   -1.0408    0.0160 C   0  0  0  0  0  0  0  0  0  0  0  0
   -0.3236   -1.3853    0.0333 C   0  0  0  0  0  0  0  0  0  0  0  0
   -1.3048   -0.3871    0.0179 C   0  0  0  0  0  0  0  0  0  0  0  0
   -3.1169   -0.9543    0.0435 Br  0  0  0  0  0  0  0  0  0  0  0  0
   -0.9251    0.9608   -0.0150 C   0  0  0  0  0  0  0  0  0  0  0  0
   -2.1776    2.3888   -0.0381 Br  0  0  0  0  0  0  0  0  0  0  0  0
    0.4316    1.3033   -0.0323 C   0  0  0  0  0  0  0  0  0  0  0  0
    1.7858   -1.8220    0.0282 H   0  0  0  0  0  0  0  0  0  0  0  0
   -0.6026   -2.4366    0.0589 H   0  0  0  0  0  0  0  0  0  0  0  0
    0.7361    2.3468   -0.0579 H   0  0  0  0  0  0  0  0  0  0  0  0
  1  2  1  0
  2  3  2  0
  3  4  1  0
  4  5  2  0
  5  6  1  0
  5  7  1  0
  7  8  1  0
  7  9  2  0
  9  2  1  0
  3 10  1  0
  4 11  1  0
  9 12  1  0
M  END
