
     RDKit          3D

 11 11  0  0  0  0  0  0  0  0999 V2000
   -2.1393    1.4848    0.2496 F   0  0  0  0  0  0  0  0  0  0  0  0
   -1.1208    0.6221    0.1237 C   0  0  0  0  0  0  0  0  0  0  0  0
   -1.3811   -0.7358    0.0837 C   0  0  0  0  0  0  0  0  0  0  0  0
   -0.4191   -1.6776   -0.0411 N   0  0  0  0  0  0  0  0  0  0  0  0
    0.8567   -1.2287   -0.1289 C   0  0  0  0  0  0  0  0  0  0  0  0
    1.2163    0.1148   -0.0981 C   0  0  0  0  0  0  0  0  0  0  0  0
    3.0539    0.5512   -0.2343 Br  0  0  0  0  0  0  0  0  0  0  0  0
    0.1982    1.0600    0.0316 C   0  0  0  0  0  0  0  0  0  0  0  0
    0.5309    2.9286    0.0887 Br  0  0  0  0  0  0  0  0  0  0  0  0
   -2.3992   -1.1061    0.1533 H   0  0  0  0  0  0  0  0  0  0  0  0
    1.6034   -2.0133   -0.2283 H   0  0  0  0  0  0  0  0  0  0  0  0
  1  2  1  0
  2  3  2  0
  3  4  1  0
  4  5  2  0
  5  6  1  0
  6  7  1  0
  6  8  2  0
  8  9  1  0
  8  2  1  0
  3 10  1  0
  5 11  1  0
M  END
