
     RDKit          3D

 12 12  0  0  0  0  0  0  0  0999 V2000
   -1.9553    0.0748   -0.0044 C   0  0  0  0  0  0  0  0  0  0  0  0
   -0.5152    0.0996    0.0875 N   0  0  0  0  0  0  0  0  0  0  0  0
    0.3233   -0.9772    0.1323 C   0  0  0  0  0  0  0  0  0  0  0  0
    1.5879   -0.4510    0.2170 C   0  0  0  0  0  0  0  0  0  0  0  0
    3.1905   -1.4083    0.3114 Br  0  0  0  0  0  0  0  0  0  0  0  0
    1.4129    0.9406    0.2170 C   0  0  0  0  0  0  0  0  0  0  0  0
    2.7886    2.2197    0.3149 Br  0  0  0  0  0  0  0  0  0  0  0  0
    0.1235    1.2850    0.1377 N   0  0  0  0  0  0  0  0  0  0  0  0
   -2.3650    0.5792    0.8742 H   0  0  0  0  0  0  0  0  0  0  0  0
   -2.2998   -0.9618   -0.0347 H   0  0  0  0  0  0  0  0  0  0  0  0
   -2.2507    0.5936   -0.9197 H   0  0  0  0  0  0  0  0  0  0  0  0
   -0.0406   -1.9943    0.1009 H   0  0  0  0  0  0  0  0  0  0  0  0
  1  2  1  0
  2  3  1  0
  3  4  2  0
  4  5  1  0
  4  6  1  0
  6  7  1  0
  6  8  2  0
  8  2  1  0
  1  9  1  0
  1 10  1  0
  1 11  1  0
  3 12  1  0
M  END
