
     RDKit          3D

  9  9  0  0  0  0  0  0  0  0999 V2000
   -1.7450    2.1419    0.1498 Br  0  0  0  0  0  0  0  0  0  0  0  0
   -0.6965    0.5721    0.0504 C   0  0  0  0  0  0  0  0  0  0  0  0
   -1.2432   -0.6901    0.0334 C   0  0  0  0  0  0  0  0  0  0  0  0
   -0.0361   -1.9035   -0.0614 S   0  0  0  0  0  0  0  0  0  0  0  0
    1.2162   -0.7331   -0.0793 C   0  0  0  0  0  0  0  0  0  0  0  0
    0.7177    0.5474   -0.0143 C   0  0  0  0  0  0  0  0  0  0  0  0
    1.8250    2.0796   -0.0137 Br  0  0  0  0  0  0  0  0  0  0  0  0
   -2.2878   -0.9675    0.0714 H   0  0  0  0  0  0  0  0  0  0  0  0
    2.2496   -1.0468   -0.1364 H   0  0  0  0  0  0  0  0  0  0  0  0
  1  2  1  0
  2  3  2  0
  3  4  1  0
  4  5  1  0
  5  6  2  0
  6  7  1  0
  6  2  1  0
  3  8  1  0
  5  9  1  0
M  END
