
     RDKit          3D

 15 15  0  0  0  0  0  0  0  0999 V2000
   -2.7629    0.9517    1.3724 O   0  0  0  0  0  0  0  0  0  0  0  0
   -2.4560    0.0735    0.2639 S   0  0  0  0  0  0  0  0  0  0  0  0
   -3.0149   -1.2552    0.1329 O   0  0  0  0  0  0  0  0  0  0  0  0
   -2.9849    1.0827   -1.4304 Cl  0  0  0  0  0  0  0  0  0  0  0  0
   -0.6961   -0.0229    0.0817 C   0  0  0  0  0  0  0  0  0  0  0  0
   -0.1203   -1.1539   -0.5018 C   0  0  0  0  0  0  0  0  0  0  0  0
    1.2685   -1.2321   -0.6215 C   0  0  0  0  0  0  0  0  0  0  0  0
    2.0797   -0.1906   -0.1528 C   0  0  0  0  0  0  0  0  0  0  0  0
    3.9558   -0.3943   -0.3652 Br  0  0  0  0  0  0  0  0  0  0  0  0
    1.4954    0.9346    0.4438 C   0  0  0  0  0  0  0  0  0  0  0  0
    2.5088    2.3934    1.1159 Br  0  0  0  0  0  0  0  0  0  0  0  0
    0.1040    1.0172    0.5660 C   0  0  0  0  0  0  0  0  0  0  0  0
   -0.7367   -1.9760   -0.8629 H   0  0  0  0  0  0  0  0  0  0  0  0
    1.7123   -2.1143   -1.0798 H   0  0  0  0  0  0  0  0  0  0  0  0
   -0.3527    1.8860    1.0378 H   0  0  0  0  0  0  0  0  0  0  0  0
  1  2  2  0
  2  3  2  0
  2  4  1  0
  2  5  1  0
  5  6  2  0
  6  7  1  0
  7  8  2  0
  8  9  1  0
  8 10  1  0
 10 11  1  0
 10 12  2  0
 12  5  1  0
  6 13  1  0
  7 14  1  0
 12 15  1  0
M  END
