
     RDKit          3D

 14 14  0  0  0  0  0  0  0  0999 V2000
    2.8317   -1.6133   -0.1965 O   0  0  0  0  0  0  0  0  0  0  0  0
    2.3618   -0.4883   -0.3087 C   0  0  0  0  0  0  0  0  0  0  0  0
    0.9224   -0.2210   -0.1154 C   0  0  0  0  0  0  0  0  0  0  0  0
    0.0519   -1.2651    0.2051 C   0  0  0  0  0  0  0  0  0  0  0  0
   -1.3076   -1.0035    0.3860 C   0  0  0  0  0  0  0  0  0  0  0  0
   -1.7991    0.2997    0.2474 C   0  0  0  0  0  0  0  0  0  0  0  0
   -3.6620    0.5550    0.5127 Br  0  0  0  0  0  0  0  0  0  0  0  0
   -0.9220    1.3441   -0.0743 C   0  0  0  0  0  0  0  0  0  0  0  0
   -1.4902    3.1449   -0.2843 Br  0  0  0  0  0  0  0  0  0  0  0  0
    0.4419    1.0832   -0.2561 C   0  0  0  0  0  0  0  0  0  0  0  0
    2.9972    0.3774   -0.5601 H   0  0  0  0  0  0  0  0  0  0  0  0
    0.4276   -2.2813    0.3144 H   0  0  0  0  0  0  0  0  0  0  0  0
   -1.9757   -1.8255    0.6355 H   0  0  0  0  0  0  0  0  0  0  0  0
    1.1223    1.8938   -0.5057 H   0  0  0  0  0  0  0  0  0  0  0  0
  1  2  2  0
  2  3  1  0
  3  4  2  0
  4  5  1  0
  5  6  2  0
  6  7  1  0
  6  8  1  0
  8  9  1  0
  8 10  2  0
 10  3  1  0
  2 11  1  0
  4 12  1  0
  5 13  1  0
 10 14  1  0
M  END
