
     RDKit          3D

 13 13  0  0  0  0  0  0  0  0999 V2000
   -3.6461    0.8575   -0.1335 N   0  0  0  0  0  0  0  0  0  0  0  0
   -2.5208    0.5777   -0.0948 C   0  0  0  0  0  0  0  0  0  0  0  0
   -1.1304    0.2310   -0.0471 C   0  0  0  0  0  0  0  0  0  0  0  0
   -0.7311   -1.0952   -0.2346 C   0  0  0  0  0  0  0  0  0  0  0  0
    0.6244   -1.4317   -0.1878 C   0  0  0  0  0  0  0  0  0  0  0  0
    1.5890   -0.4452    0.0465 C   0  0  0  0  0  0  0  0  0  0  0  0
    3.4037   -1.0018    0.0916 Br  0  0  0  0  0  0  0  0  0  0  0  0
    1.1911    0.8837    0.2345 C   0  0  0  0  0  0  0  0  0  0  0  0
    2.4189    2.2963    0.5584 Br  0  0  0  0  0  0  0  0  0  0  0  0
   -0.1680    1.2192    0.1873 C   0  0  0  0  0  0  0  0  0  0  0  0
   -1.4693   -1.8749   -0.4179 H   0  0  0  0  0  0  0  0  0  0  0  0
    0.9187   -2.4691   -0.3358 H   0  0  0  0  0  0  0  0  0  0  0  0
   -0.4800    2.2525    0.3333 H   0  0  0  0  0  0  0  0  0  0  0  0
  1  2  3  0
  2  3  1  0
  3  4  2  0
  4  5  1  0
  5  6  2  0
  6  7  1  0
  6  8  1  0
  8  9  1  0
  8 10  2  0
 10  3  1  0
  4 11  1  0
  5 12  1  0
 10 13  1  0
M  END
