
     RDKit          3D

 15 15  0  0  0  0  0  0  0  0999 V2000
   -2.2633    0.0055    0.3924 C   0  0  0  0  0  0  0  0  0  0  0  0
   -0.7920    0.0028    0.0979 C   0  0  0  0  0  0  0  0  0  0  0  0
   -0.2682    0.8217   -0.9073 C   0  0  0  0  0  0  0  0  0  0  0  0
    1.1056    0.8410   -1.1590 C   0  0  0  0  0  0  0  0  0  0  0  0
    1.9741    0.0493   -0.4010 C   0  0  0  0  0  0  0  0  0  0  0  0
    3.8240    0.1455   -0.8203 Br  0  0  0  0  0  0  0  0  0  0  0  0
    1.4615   -0.7616    0.6162 C   0  0  0  0  0  0  0  0  0  0  0  0
    2.5526   -1.8666    1.7105 Br  0  0  0  0  0  0  0  0  0  0  0  0
    0.0831   -0.7780    0.8651 C   0  0  0  0  0  0  0  0  0  0  0  0
   -2.4923    0.7646    1.1466 H   0  0  0  0  0  0  0  0  0  0  0  0
   -2.5888   -0.9723    0.7628 H   0  0  0  0  0  0  0  0  0  0  0  0
   -2.8427    0.2189   -0.5120 H   0  0  0  0  0  0  0  0  0  0  0  0
   -0.9267    1.4507   -1.5035 H   0  0  0  0  0  0  0  0  0  0  0  0
    1.4891    1.4817   -1.9499 H   0  0  0  0  0  0  0  0  0  0  0  0
   -0.3162   -1.4033    1.6615 H   0  0  0  0  0  0  0  0  0  0  0  0
  1  2  1  0
  2  3  2  0
  3  4  1  0
  4  5  2  0
  5  6  1  0
  5  7  1  0
  7  8  1  0
  7  9  2  0
  9  2  1  0
  1 10  1  0
  1 11  1  0
  1 12  1  0
  3 13  1  0
  4 14  1  0
  9 15  1  0
M  END
