
     RDKit          3D

 12 12  0  0  0  0  0  0  0  0999 V2000
   -2.9036   -1.1326    0.4708 Cl  0  0  0  0  0  0  0  0  0  0  0  0
   -1.3298   -0.4879    0.2130 C   0  0  0  0  0  0  0  0  0  0  0  0
   -1.1620    0.8876    0.0725 C   0  0  0  0  0  0  0  0  0  0  0  0
    0.1153    1.4117   -0.1368 C   0  0  0  0  0  0  0  0  0  0  0  0
    1.2237    0.5595   -0.2055 C   0  0  0  0  0  0  0  0  0  0  0  0
    2.9188    1.3658   -0.4929 Br  0  0  0  0  0  0  0  0  0  0  0  0
    1.0479   -0.8228   -0.0635 C   0  0  0  0  0  0  0  0  0  0  0  0
    2.4852   -2.0625   -0.1410 Br  0  0  0  0  0  0  0  0  0  0  0  0
   -0.2332   -1.3455    0.1463 C   0  0  0  0  0  0  0  0  0  0  0  0
   -2.0180    1.5561    0.1247 H   0  0  0  0  0  0  0  0  0  0  0  0
    0.2356    2.4875   -0.2452 H   0  0  0  0  0  0  0  0  0  0  0  0
   -0.3797   -2.4170    0.2577 H   0  0  0  0  0  0  0  0  0  0  0  0
  1  2  1  0
  2  3  2  0
  3  4  1  0
  4  5  2  0
  5  6  1  0
  5  7  1  0
  7  8  1  0
  7  9  2  0
  9  2  1  0
  3 10  1  0
  4 11  1  0
  9 12  1  0
M  END
