
     RDKit          3D

 16 16  0  0  0  0  0  0  0  0999 V2000
   -2.3783   -1.0834    0.8743 C   0  0  0  0  0  0  0  0  0  0  0  0
   -0.9865   -1.3156    1.0546 O   0  0  0  0  0  0  0  0  0  0  0  0
   -0.1261   -0.4871    0.3896 C   0  0  0  0  0  0  0  0  0  0  0  0
    1.2262   -0.7611    0.6035 C   0  0  0  0  0  0  0  0  0  0  0  0
    2.2152    0.0072   -0.0139 C   0  0  0  0  0  0  0  0  0  0  0  0
    1.8576    1.0627   -0.8558 C   0  0  0  0  0  0  0  0  0  0  0  0
    3.2673    2.0538   -1.6528 Br  0  0  0  0  0  0  0  0  0  0  0  0
    0.5044    1.3426   -1.0744 C   0  0  0  0  0  0  0  0  0  0  0  0
   -0.0887    2.7550   -2.2005 Br  0  0  0  0  0  0  0  0  0  0  0  0
   -0.4847    0.5670   -0.4512 C   0  0  0  0  0  0  0  0  0  0  0  0
   -2.9207   -1.8250    1.4687 H   0  0  0  0  0  0  0  0  0  0  0  0
   -2.6683   -1.2189   -0.1729 H   0  0  0  0  0  0  0  0  0  0  0  0
   -2.6631   -0.0910    1.2390 H   0  0  0  0  0  0  0  0  0  0  0  0
    1.5123   -1.5818    1.2580 H   0  0  0  0  0  0  0  0  0  0  0  0
    3.2606   -0.2285    0.1705 H   0  0  0  0  0  0  0  0  0  0  0  0
   -1.5272    0.8041   -0.6367 H   0  0  0  0  0  0  0  0  0  0  0  0
  1  2  1  0
  2  3  1  0
  3  4  2  0
  4  5  1  0
  5  6  2  0
  6  7  1  0
  6  8  1  0
  8  9  1  0
  8 10  2  0
 10  3  1  0
  1 11  1  0
  1 12  1  0
  1 13  1  0
  4 14  1  0
  5 15  1  0
 10 16  1  0
M  END
