
     RDKit          3D

 18 18  0  0  0  0  0  0  0  0999 V2000
   -2.6889   -0.9038    0.7589 C   0  0  0  0  0  0  0  0  0  0  0  0
   -2.2208    0.2083    0.0081 O   0  0  0  0  0  0  0  0  0  0  0  0
   -0.8659    0.3505   -0.1604 C   0  0  0  0  0  0  0  0  0  0  0  0
    0.0822   -0.5584    0.3307 C   0  0  0  0  0  0  0  0  0  0  0  0
    1.4490   -0.3770    0.0979 C   0  0  0  0  0  0  0  0  0  0  0  0
    2.3839   -1.2297    0.6959 N   0  0  0  0  0  0  0  0  0  0  0  0
    1.8726    0.7846   -0.5461 C   0  0  0  0  0  0  0  0  0  0  0  0
    0.9446    1.7050   -1.0464 C   0  0  0  0  0  0  0  0  0  0  0  0
    1.6551    3.2246   -1.9453 Br  0  0  0  0  0  0  0  0  0  0  0  0
   -0.4282    1.4878   -0.8664 C   0  0  0  0  0  0  0  0  0  0  0  0
   -1.7232    2.7195   -1.5448 Br  0  0  0  0  0  0  0  0  0  0  0  0
   -3.7807   -0.8433    0.7997 H   0  0  0  0  0  0  0  0  0  0  0  0
   -2.3158   -0.8712    1.7877 H   0  0  0  0  0  0  0  0  0  0  0  0
   -2.4267   -1.8478    0.2703 H   0  0  0  0  0  0  0  0  0  0  0  0
   -0.2232   -1.4278    0.9033 H   0  0  0  0  0  0  0  0  0  0  0  0
    3.3004   -1.2211    0.2575 H   0  0  0  0  0  0  0  0  0  0  0  0
    2.0485   -2.1739    0.8614 H   0  0  0  0  0  0  0  0  0  0  0  0
    2.9371    0.9738   -0.6620 H   0  0  0  0  0  0  0  0  0  0  0  0
  1  2  1  0
  2  3  1  0
  3  4  2  0
  4  5  1  0
  5  6  1  0
  5  7  2  0
  7  8  1  0
  8  9  1  0
  8 10  2  0
 10 11  1  0
 10  3  1  0
  1 12  1  0
  1 13  1  0
  1 14  1  0
  4 15  1  0
  6 16  1  0
  6 17  1  0
  7 18  1  0
M  END
