
     RDKit          3D

 18 18  0  0  0  0  0  0  0  0999 V2000
   -2.4317    0.1572    0.8877 C   0  0  0  0  0  0  0  0  0  0  0  0
   -1.6718    0.6423   -0.3373 C   0  0  0  0  0  0  0  0  0  0  0  0
   -0.2295    0.2035   -0.3119 C   0  0  0  0  0  0  0  0  0  0  0  0
    0.1531   -1.0134   -0.8871 C   0  0  0  0  0  0  0  0  0  0  0  0
    1.4870   -1.4256   -0.8479 C   0  0  0  0  0  0  0  0  0  0  0  0
    2.4552   -0.6287   -0.2287 C   0  0  0  0  0  0  0  0  0  0  0  0
    4.2404   -1.2769   -0.2279 Br  0  0  0  0  0  0  0  0  0  0  0  0
    2.0822    0.5858    0.3552 C   0  0  0  0  0  0  0  0  0  0  0  0
    3.3149    1.7399    1.2255 Br  0  0  0  0  0  0  0  0  0  0  0  0
    0.7436    0.9960    0.3136 C   0  0  0  0  0  0  0  0  0  0  0  0
   -1.9905    0.5496    1.8102 H   0  0  0  0  0  0  0  0  0  0  0  0
   -3.4738    0.4889    0.8424 H   0  0  0  0  0  0  0  0  0  0  0  0
   -2.4260   -0.9362    0.9514 H   0  0  0  0  0  0  0  0  0  0  0  0
   -2.1562    0.2664   -1.2468 H   0  0  0  0  0  0  0  0  0  0  0  0
   -1.7232    1.7363   -0.3968 H   0  0  0  0  0  0  0  0  0  0  0  0
   -0.5860   -1.6500   -1.3697 H   0  0  0  0  0  0  0  0  0  0  0  0
    1.7606   -2.3744   -1.3039 H   0  0  0  0  0  0  0  0  0  0  0  0
    0.4516    1.9391    0.7718 H   0  0  0  0  0  0  0  0  0  0  0  0
  1  2  1  0
  2  3  1  0
  3  4  2  0
  4  5  1  0
  5  6  2  0
  6  7  1  0
  6  8  1  0
  8  9  1  0
  8 10  2  0
 10  3  1  0
  1 11  1  0
  1 12  1  0
  1 13  1  0
  2 14  1  0
  2 15  1  0
  4 16  1  0
  5 17  1  0
 10 18  1  0
M  END
