
     RDKit          3D

  9  9  0  0  0  0  0  0  0  0999 V2000
    1.7859    2.1337    0.0038 Br  0  0  0  0  0  0  0  0  0  0  0  0
    0.6888    0.6174    0.0021 C   0  0  0  0  0  0  0  0  0  0  0  0
    1.1086   -0.6899    0.0090 C   0  0  0  0  0  0  0  0  0  0  0  0
    0.0338   -1.5273    0.0053 O   0  0  0  0  0  0  0  0  0  0  0  0
   -1.0769   -0.7383   -0.0041 C   0  0  0  0  0  0  0  0  0  0  0  0
   -0.7155    0.5862   -0.0063 C   0  0  0  0  0  0  0  0  0  0  0  0
   -1.8786    2.0524   -0.0182 Br  0  0  0  0  0  0  0  0  0  0  0  0
    2.0762   -1.1716    0.0165 H   0  0  0  0  0  0  0  0  0  0  0  0
   -2.0223   -1.2625   -0.0081 H   0  0  0  0  0  0  0  0  0  0  0  0
  1  2  1  0
  2  3  2  0
  3  4  1  0
  4  5  1  0
  5  6  2  0
  6  7  1  0
  6  2  1  0
  3  8  1  0
  5  9  1  0
M  END
