
     RDKit          3D

 11 11  0  0  0  0  0  0  0  0999 V2000
   -1.6484    1.9660   -0.5111 F   0  0  0  0  0  0  0  0  0  0  0  0
   -0.9046    0.8800   -0.2565 C   0  0  0  0  0  0  0  0  0  0  0  0
   -1.5104   -0.3626   -0.2076 C   0  0  0  0  0  0  0  0  0  0  0  0
   -0.8414   -1.5106    0.0420 N   0  0  0  0  0  0  0  0  0  0  0  0
    0.4931   -1.3980    0.2505 C   0  0  0  0  0  0  0  0  0  0  0  0
    1.1897   -0.1942    0.2214 C   0  0  0  0  0  0  0  0  0  0  0  0
    3.0564   -0.2345    0.5368 Br  0  0  0  0  0  0  0  0  0  0  0  0
    0.4681    0.9712   -0.0391 C   0  0  0  0  0  0  0  0  0  0  0  0
    1.2775    2.6874   -0.1112 Br  0  0  0  0  0  0  0  0  0  0  0  0
   -2.5784   -0.4641   -0.3731 H   0  0  0  0  0  0  0  0  0  0  0  0
    0.9983   -2.3407    0.4481 H   0  0  0  0  0  0  0  0  0  0  0  0
  1  2  1  0
  2  3  2  0
  3  4  1  0
  4  5  2  0
  5  6  1  0
  6  7  1  0
  6  8  2  0
  8  9  1  0
  8  2  1  0
  3 10  1  0
  5 11  1  0
M  END
