
     RDKit          3D

  9  9  0  0  0  0  0  0  0  0999 V2000
   -1.8468    2.0589    0.0743 Br  0  0  0  0  0  0  0  0  0  0  0  0
   -0.7231    0.5393    0.0364 C   0  0  0  0  0  0  0  0  0  0  0  0
   -1.2057   -0.7471    0.1055 C   0  0  0  0  0  0  0  0  0  0  0  0
    0.0586   -1.9033    0.0477 S   0  0  0  0  0  0  0  0  0  0  0  0
    1.2495   -0.6759   -0.0698 C   0  0  0  0  0  0  0  0  0  0  0  0
    0.6886    0.5802   -0.0645 C   0  0  0  0  0  0  0  0  0  0  0  0
    1.7169    2.1622   -0.1802 Br  0  0  0  0  0  0  0  0  0  0  0  0
   -2.2337   -1.0727    0.1870 H   0  0  0  0  0  0  0  0  0  0  0  0
    2.2957   -0.9415   -0.1365 H   0  0  0  0  0  0  0  0  0  0  0  0
  1  2  1  0
  2  3  2  0
  3  4  1  0
  4  5  1  0
  5  6  2  0
  6  7  1  0
  6  2  1  0
  3  8  1  0
  5  9  1  0
M  END
