
     RDKit          3D

 18 18  0  0  0  0  0  0  0  0999 V2000
   -2.5090    0.4870    0.4398 C   0  0  0  0  0  0  0  0  0  0  0  0
   -1.7076   -0.4584   -0.4418 C   0  0  0  0  0  0  0  0  0  0  0  0
   -0.2231   -0.2928   -0.2363 C   0  0  0  0  0  0  0  0  0  0  0  0
    0.4495   -1.0509    0.7285 C   0  0  0  0  0  0  0  0  0  0  0  0
    1.8217   -0.8841    0.9286 C   0  0  0  0  0  0  0  0  0  0  0  0
    2.5386    0.0465    0.1698 C   0  0  0  0  0  0  0  0  0  0  0  0
    4.3996    0.1989    0.5172 Br  0  0  0  0  0  0  0  0  0  0  0  0
    1.8748    0.8140   -0.7922 C   0  0  0  0  0  0  0  0  0  0  0  0
    2.7512    2.1084   -1.8717 Br  0  0  0  0  0  0  0  0  0  0  0  0
    0.4987    0.6437   -0.9901 C   0  0  0  0  0  0  0  0  0  0  0  0
   -2.2674    1.5331    0.2235 H   0  0  0  0  0  0  0  0  0  0  0  0
   -2.3062    0.3081    1.5012 H   0  0  0  0  0  0  0  0  0  0  0  0
   -3.5811    0.3447    0.2707 H   0  0  0  0  0  0  0  0  0  0  0  0
   -1.9556   -0.2829   -1.4957 H   0  0  0  0  0  0  0  0  0  0  0  0
   -1.9961   -1.4955   -0.2313 H   0  0  0  0  0  0  0  0  0  0  0  0
   -0.0913   -1.7771    1.3325 H   0  0  0  0  0  0  0  0  0  0  0  0
    2.3229   -1.4865    1.6828 H   0  0  0  0  0  0  0  0  0  0  0  0
   -0.0197    1.2438   -1.7356 H   0  0  0  0  0  0  0  0  0  0  0  0
  1  2  1  0
  2  3  1  0
  3  4  2  0
  4  5  1  0
  5  6  2  0
  6  7  1  0
  6  8  1  0
  8  9  1  0
  8 10  2  0
 10  3  1  0
  1 11  1  0
  1 12  1  0
  1 13  1  0
  2 14  1  0
  2 15  1  0
  4 16  1  0
  5 17  1  0
 10 18  1  0
M  END
