
     RDKit          3D

 13 13  0  0  0  0  0  0  0  0999 V2000
    3.6692   -0.7439    0.1763 N   0  0  0  0  0  0  0  0  0  0  0  0
    2.5365   -0.4990    0.1210 C   0  0  0  0  0  0  0  0  0  0  0  0
    1.1368   -0.1954    0.0526 C   0  0  0  0  0  0  0  0  0  0  0  0
    0.7106    1.1326   -0.0385 C   0  0  0  0  0  0  0  0  0  0  0  0
   -0.6539    1.4270   -0.1050 C   0  0  0  0  0  0  0  0  0  0  0  0
   -1.6005    0.3965   -0.0810 C   0  0  0  0  0  0  0  0  0  0  0  0
   -3.4292    0.8981   -0.1763 Br  0  0  0  0  0  0  0  0  0  0  0  0
   -1.1755   -0.9342    0.0102 C   0  0  0  0  0  0  0  0  0  0  0  0
   -2.3773   -2.4045    0.0499 Br  0  0  0  0  0  0  0  0  0  0  0  0
    0.1925   -1.2275    0.0768 C   0  0  0  0  0  0  0  0  0  0  0  0
    1.4345    1.9462   -0.0583 H   0  0  0  0  0  0  0  0  0  0  0  0
   -0.9692    2.4663   -0.1757 H   0  0  0  0  0  0  0  0  0  0  0  0
    0.5256   -2.2622    0.1478 H   0  0  0  0  0  0  0  0  0  0  0  0
  1  2  3  0
  2  3  1  0
  3  4  2  0
  4  5  1  0
  5  6  2  0
  6  7  1  0
  6  8  1  0
  8  9  1  0
  8 10  2  0
 10  3  1  0
  4 11  1  0
  5 12  1  0
 10 13  1  0
M  END
