
     RDKit          3D

 12 12  0  0  0  0  0  0  0  0999 V2000
   -1.9471    0.2174    0.0737 C   0  0  0  0  0  0  0  0  0  0  0  0
   -0.5071    0.1369    0.0222 N   0  0  0  0  0  0  0  0  0  0  0  0
    0.2499   -0.9975   -0.0459 C   0  0  0  0  0  0  0  0  0  0  0  0
    1.5522   -0.5655   -0.0734 C   0  0  0  0  0  0  0  0  0  0  0  0
    3.0812   -1.6366   -0.1651 Br  0  0  0  0  0  0  0  0  0  0  0  0
    1.4813    0.8342   -0.0185 C   0  0  0  0  0  0  0  0  0  0  0  0
    2.9507    2.0085   -0.0238 Br  0  0  0  0  0  0  0  0  0  0  0  0
    0.2193    1.2717    0.0404 N   0  0  0  0  0  0  0  0  0  0  0  0
   -2.2309    0.7193    1.0020 H   0  0  0  0  0  0  0  0  0  0  0  0
   -2.3687   -0.7905    0.0500 H   0  0  0  0  0  0  0  0  0  0  0  0
   -2.2913    0.7867   -0.7933 H   0  0  0  0  0  0  0  0  0  0  0  0
   -0.1895   -1.9846   -0.0681 H   0  0  0  0  0  0  0  0  0  0  0  0
  1  2  1  0
  2  3  1  0
  3  4  2  0
  4  5  1  0
  4  6  1  0
  6  7  1  0
  6  8  2  0
  8  2  1  0
  1  9  1  0
  1 10  1  0
  1 11  1  0
  3 12  1  0
M  END
