
     RDKit          3D

 15 16  0  0  0  0  0  0  0  0999 V2000
   -2.0875    2.5376   -0.2592 Br  0  0  0  0  0  0  0  0  0  0  0  0
   -1.3245    0.8187   -0.0610 C   0  0  0  0  0  0  0  0  0  0  0  0
   -2.1908   -0.2638    0.1107 C   0  0  0  0  0  0  0  0  0  0  0  0
   -1.6536   -1.5311    0.2577 C   0  0  0  0  0  0  0  0  0  0  0  0
   -0.3383   -1.8286    0.2509 N   0  0  0  0  0  0  0  0  0  0  0  0
    0.4512   -0.7527    0.0827 C   0  0  0  0  0  0  0  0  0  0  0  0
    1.8170   -0.8236    0.0445 N   0  0  0  0  0  0  0  0  0  0  0  0
    2.3403    0.4272   -0.1373 C   0  0  0  0  0  0  0  0  0  0  0  0
    1.2815    1.3029   -0.2149 C   0  0  0  0  0  0  0  0  0  0  0  0
    1.4737    3.1545   -0.4638 Br  0  0  0  0  0  0  0  0  0  0  0  0
    0.0646    0.5794   -0.0780 C   0  0  0  0  0  0  0  0  0  0  0  0
   -3.2668   -0.1278    0.1304 H   0  0  0  0  0  0  0  0  0  0  0  0
   -2.3093   -2.3887    0.3927 H   0  0  0  0  0  0  0  0  0  0  0  0
    2.3333   -1.6863    0.1393 H   0  0  0  0  0  0  0  0  0  0  0  0
    3.4092    0.5825   -0.1948 H   0  0  0  0  0  0  0  0  0  0  0  0
  1  2  1  0
  2  3  2  0
  3  4  1  0
  4  5  2  0
  5  6  1  0
  6  7  1  0
  7  8  1  0
  8  9  2  0
  9 10  1  0
  9 11  1  0
 11  2  1  0
 11  6  2  0
  3 12  1  0
  4 13  1  0
  7 14  1  0
  8 15  1  0
M  END
