
     RDKit          3D

 15 15  0  0  0  0  0  0  0  0999 V2000
   -2.5993   -0.8664   -0.1260 C   0  0  0  0  0  0  0  0  0  0  0  0
   -1.2150   -0.3163   -0.0352 C   0  0  0  0  0  0  0  0  0  0  0  0
    0.1271   -1.3300   -0.3606 S   0  0  0  0  0  0  0  0  0  0  0  0
    1.2520   -0.0712   -0.0698 C   0  0  0  0  0  0  0  0  0  0  0  0
    2.7144   -0.3384   -0.2006 C   0  0  0  0  0  0  0  0  0  0  0  0
    0.6078    1.1004    0.2694 C   0  0  0  0  0  0  0  0  0  0  0  0
    1.5156    2.7183    0.6649 Br  0  0  0  0  0  0  0  0  0  0  0  0
   -0.8047    0.9600    0.2892 C   0  0  0  0  0  0  0  0  0  0  0  0
   -2.0017    2.3689    0.7143 Br  0  0  0  0  0  0  0  0  0  0  0  0
   -2.6107   -1.9244   -0.4083 H   0  0  0  0  0  0  0  0  0  0  0  0
   -3.1084   -0.7753    0.8392 H   0  0  0  0  0  0  0  0  0  0  0  0
   -3.1780   -0.3170   -0.8759 H   0  0  0  0  0  0  0  0  0  0  0  0
    2.9259   -1.3743   -0.4860 H   0  0  0  0  0  0  0  0  0  0  0  0
    3.1527    0.3120   -0.9648 H   0  0  0  0  0  0  0  0  0  0  0  0
    3.2223   -0.1463    0.7503 H   0  0  0  0  0  0  0  0  0  0  0  0
  1  2  1  0
  2  3  1  0
  3  4  1  0
  4  5  1  0
  4  6  2  0
  6  7  1  0
  6  8  1  0
  8  9  1  0
  8  2  2  0
  1 10  1  0
  1 11  1  0
  1 12  1  0
  5 13  1  0
  5 14  1  0
  5 15  1  0
M  END
