
     RDKit          3D

 11 11  0  0  0  0  0  0  0  0999 V2000
   -1.9850    1.7731    0.2442 O   0  0  0  0  0  0  0  0  0  0  0  0
   -1.8068    0.5759    0.0117 N   0  0  0  0  0  4  0  0  0  0  0  0
   -2.6879   -0.2645   -0.2102 O   0  0  0  0  0  1  0  0  0  0  0  0
   -0.4776    0.0986   -0.0078 C   0  0  0  0  0  0  0  0  0  0  0  0
   -0.2549   -1.2194   -0.2623 N   0  0  0  0  0  0  0  0  0  0  0  0
    1.0524   -1.5433   -0.2519 N   0  0  0  0  0  0  0  0  0  0  0  0
    1.6563   -0.3793    0.0195 C   0  0  0  0  0  0  0  0  0  0  0  0
    3.5302   -0.2458    0.1557 Br  0  0  0  0  0  0  0  0  0  0  0  0
    0.7448    0.6837    0.1821 C   0  0  0  0  0  0  0  0  0  0  0  0
    1.1738    2.4643    0.5684 Br  0  0  0  0  0  0  0  0  0  0  0  0
   -0.9453   -1.9432   -0.4494 H   0  0  0  0  0  0  0  0  0  0  0  0
  1  2  2  0
  2  3  1  0
  2  4  1  0
  4  5  1  0
  5  6  1  0
  6  7  2  0
  7  8  1  0
  7  9  1  0
  9 10  1  0
  9  4  2  0
  5 11  1  0
M  CHG  2   2   1   3  -1
M  END
