
     RDKit          3D

 16 16  0  0  0  0  0  0  0  0999 V2000
   -2.7186   -0.4287    0.3790 C   0  0  0  0  0  0  0  0  0  0  0  0
   -1.8362    0.6571    0.1223 O   0  0  0  0  0  0  0  0  0  0  0  0
   -0.4956    0.3915    0.1578 C   0  0  0  0  0  0  0  0  0  0  0  0
    0.3221    1.4931   -0.1012 C   0  0  0  0  0  0  0  0  0  0  0  0
    1.7126    1.3651   -0.0971 C   0  0  0  0  0  0  0  0  0  0  0  0
    2.3004    0.1262    0.1678 C   0  0  0  0  0  0  0  0  0  0  0  0
    4.1972    0.0439    0.1529 Br  0  0  0  0  0  0  0  0  0  0  0  0
    1.4868   -0.9818    0.4282 C   0  0  0  0  0  0  0  0  0  0  0  0
    2.1851   -2.7107    0.8001 Br  0  0  0  0  0  0  0  0  0  0  0  0
    0.0904   -0.8468    0.4227 C   0  0  0  0  0  0  0  0  0  0  0  0
   -2.6049   -1.2156   -0.3739 H   0  0  0  0  0  0  0  0  0  0  0  0
   -2.5740   -0.8237    1.3900 H   0  0  0  0  0  0  0  0  0  0  0  0
   -3.7430   -0.0497    0.3127 H   0  0  0  0  0  0  0  0  0  0  0  0
   -0.1286    2.4614   -0.3085 H   0  0  0  0  0  0  0  0  0  0  0  0
    2.3252    2.2397   -0.3022 H   0  0  0  0  0  0  0  0  0  0  0  0
   -0.5190   -1.7210    0.6276 H   0  0  0  0  0  0  0  0  0  0  0  0
  1  2  1  0
  2  3  1  0
  3  4  2  0
  4  5  1  0
  5  6  2  0
  6  7  1  0
  6  8  1  0
  8  9  1  0
  8 10  2  0
 10  3  1  0
  1 11  1  0
  1 12  1  0
  1 13  1  0
  4 14  1  0
  5 15  1  0
 10 16  1  0
M  END
