
     RDKit          3D

 15 15  0  0  0  0  0  0  0  0999 V2000
   -2.6782   -1.8367    0.3691 O   0  0  0  0  0  0  0  0  0  0  0  0
   -2.4123   -0.5139   -0.1545 S   0  0  0  0  0  0  0  0  0  0  0  0
   -2.8848   -0.0684   -1.4477 O   0  0  0  0  0  0  0  0  0  0  0  0
   -3.1640    0.8013    1.2146 Cl  0  0  0  0  0  0  0  0  0  0  0  0
   -0.6743   -0.1885   -0.0382 C   0  0  0  0  0  0  0  0  0  0  0  0
    0.1210   -0.9637    0.8090 C   0  0  0  0  0  0  0  0  0  0  0  0
    1.4932   -0.7158    0.8782 C   0  0  0  0  0  0  0  0  0  0  0  0
    2.0708    0.2949    0.0988 C   0  0  0  0  0  0  0  0  0  0  0  0
    3.9446    0.5523    0.2684 Br  0  0  0  0  0  0  0  0  0  0  0  0
    1.2685    1.0591   -0.7589 C   0  0  0  0  0  0  0  0  0  0  0  0
    1.9576    2.4449   -1.8597 Br  0  0  0  0  0  0  0  0  0  0  0  0
   -0.1072    0.8140   -0.8317 C   0  0  0  0  0  0  0  0  0  0  0  0
   -0.3114   -1.7589    1.4146 H   0  0  0  0  0  0  0  0  0  0  0  0
    2.1085   -1.3205    1.5424 H   0  0  0  0  0  0  0  0  0  0  0  0
   -0.7320    1.3999   -1.5044 H   0  0  0  0  0  0  0  0  0  0  0  0
  1  2  2  0
  2  3  2  0
  2  4  1  0
  2  5  1  0
  5  6  2  0
  6  7  1  0
  7  8  2  0
  8  9  1  0
  8 10  1  0
 10 11  1  0
 10 12  2  0
 12  5  1  0
  6 13  1  0
  7 14  1  0
 12 15  1  0
M  END
