
     RDKit          3D

 15 15  0  0  0  0  0  0  0  0999 V2000
    2.8822   -0.7042   -0.8306 O   0  0  0  0  0  0  0  0  0  0  0  0
    2.1643    0.0744   -0.2319 C   0  0  0  0  0  0  0  0  0  0  0  0
    2.6667    1.1483    0.4005 O   0  0  0  0  0  0  0  0  0  0  0  0
    0.6902   -0.0274   -0.1072 C   0  0  0  0  0  0  0  0  0  0  0  0
    0.0463   -1.1058   -0.7243 C   0  0  0  0  0  0  0  0  0  0  0  0
   -1.3411   -1.2407   -0.6323 C   0  0  0  0  0  0  0  0  0  0  0  0
   -2.0949   -0.2993    0.0769 C   0  0  0  0  0  0  0  0  0  0  0  0
   -3.9734   -0.5688    0.1451 Br  0  0  0  0  0  0  0  0  0  0  0  0
   -1.4537    0.7809    0.6955 C   0  0  0  0  0  0  0  0  0  0  0  0
   -2.3869    2.1111    1.6805 Br  0  0  0  0  0  0  0  0  0  0  0  0
   -0.0628    0.9158    0.6030 C   0  0  0  0  0  0  0  0  0  0  0  0
    3.6322    1.0907    0.2381 H   0  0  0  0  0  0  0  0  0  0  0  0
    0.6220   -1.8452   -1.2792 H   0  0  0  0  0  0  0  0  0  0  0  0
   -1.8241   -2.0857   -1.1186 H   0  0  0  0  0  0  0  0  0  0  0  0
    0.4330    1.7559    1.0845 H   0  0  0  0  0  0  0  0  0  0  0  0
  1  2  2  0
  2  3  1  0
  2  4  1  0
  4  5  2  0
  5  6  1  0
  6  7  2  0
  7  8  1  0
  7  9  1  0
  9 10  1  0
  9 11  2  0
 11  4  1  0
  3 12  1  0
  5 13  1  0
  6 14  1  0
 11 15  1  0
M  END
