
     RDKit          3D

 15 15  0  0  0  0  0  0  0  0999 V2000
   -2.6106   -0.8379    0.0766 C   0  0  0  0  0  0  0  0  0  0  0  0
   -1.2190   -0.2999    0.0396 C   0  0  0  0  0  0  0  0  0  0  0  0
    0.1082   -1.3782   -0.0621 S   0  0  0  0  0  0  0  0  0  0  0  0
    1.2505   -0.1016   -0.0576 C   0  0  0  0  0  0  0  0  0  0  0  0
    2.7086   -0.4107   -0.1328 C   0  0  0  0  0  0  0  0  0  0  0  0
    0.6231    1.1243    0.0202 C   0  0  0  0  0  0  0  0  0  0  0  0
    1.5534    2.7772    0.0493 Br  0  0  0  0  0  0  0  0  0  0  0  0
   -0.7908    1.0108    0.0759 C   0  0  0  0  0  0  0  0  0  0  0  0
   -1.9675    2.4944    0.1880 Br  0  0  0  0  0  0  0  0  0  0  0  0
   -3.1119   -0.5315    1.0007 H   0  0  0  0  0  0  0  0  0  0  0  0
   -3.1876   -0.4576   -0.7728 H   0  0  0  0  0  0  0  0  0  0  0  0
   -2.6369   -1.9317    0.0321 H   0  0  0  0  0  0  0  0  0  0  0  0
    2.9054   -1.4866   -0.1860 H   0  0  0  0  0  0  0  0  0  0  0  0
    3.2253   -0.0225    0.7512 H   0  0  0  0  0  0  0  0  0  0  0  0
    3.1496    0.0513   -1.0223 H   0  0  0  0  0  0  0  0  0  0  0  0
  1  2  1  0
  2  3  1  0
  3  4  1  0
  4  5  1  0
  4  6  2  0
  6  7  1  0
  6  8  1  0
  8  9  1  0
  8  2  2  0
  1 10  1  0
  1 11  1  0
  1 12  1  0
  5 13  1  0
  5 14  1  0
  5 15  1  0
M  END
