
     RDKit          3D

  9  9  0  0  0  0  0  0  0  0999 V2000
   -1.7836    2.0073    0.6672 Br  0  0  0  0  0  0  0  0  0  0  0  0
   -0.7067    0.5291    0.1885 C   0  0  0  0  0  0  0  0  0  0  0  0
   -1.2300   -0.7015   -0.1342 C   0  0  0  0  0  0  0  0  0  0  0  0
   -0.0011   -1.8319   -0.5219 S   0  0  0  0  0  0  0  0  0  0  0  0
    1.2292   -0.6682   -0.2560 C   0  0  0  0  0  0  0  0  0  0  0  0
    0.7073    0.5483    0.1184 C   0  0  0  0  0  0  0  0  0  0  0  0
    1.7860    2.0555    0.4903 Br  0  0  0  0  0  0  0  0  0  0  0  0
   -2.2690   -1.0000   -0.1638 H   0  0  0  0  0  0  0  0  0  0  0  0
    2.2678   -0.9386   -0.3886 H   0  0  0  0  0  0  0  0  0  0  0  0
  1  2  1  0
  2  3  2  0
  3  4  1  0
  4  5  1  0
  5  6  2  0
  6  7  1  0
  6  2  1  0
  3  8  1  0
  5  9  1  0
M  END
