
     RDKit          3D

 24 24  0  0  0  0  0  0  0  0999 V2000
   -3.4476    0.5724    0.6775 C   0  0  0  0  0  0  0  0  0  0  0  0
   -2.8699   -0.1742   -0.5149 C   0  0  0  0  0  0  0  0  0  0  0  0
   -1.3818    0.0992   -0.7433 C   0  0  0  0  0  0  0  0  0  0  0  0
   -0.4911   -0.4237    0.3867 C   0  0  0  0  0  0  0  0  0  0  0  0
    0.9731   -0.2329    0.0715 C   0  0  0  0  0  0  0  0  0  0  0  0
    1.6211    0.9616    0.4052 C   0  0  0  0  0  0  0  0  0  0  0  0
    2.9714    1.1429    0.0979 C   0  0  0  0  0  0  0  0  0  0  0  0
    3.6900    0.1342   -0.5515 C   0  0  0  0  0  0  0  0  0  0  0  0
    5.5202    0.4772   -0.9257 Br  0  0  0  0  0  0  0  0  0  0  0  0
    3.0500   -1.0605   -0.8954 C   0  0  0  0  0  0  0  0  0  0  0  0
    3.9307   -2.4906   -1.7833 Br  0  0  0  0  0  0  0  0  0  0  0  0
    1.6959   -1.2390   -0.5854 C   0  0  0  0  0  0  0  0  0  0  0  0
   -3.0156    0.2209    1.6189 H   0  0  0  0  0  0  0  0  0  0  0  0
   -4.5296    0.4144    0.7308 H   0  0  0  0  0  0  0  0  0  0  0  0
   -3.2663    1.6485    0.5930 H   0  0  0  0  0  0  0  0  0  0  0  0
   -3.0368   -1.2501   -0.3879 H   0  0  0  0  0  0  0  0  0  0  0  0
   -3.4202    0.1276   -1.4141 H   0  0  0  0  0  0  0  0  0  0  0  0
   -1.0885   -0.3767   -1.6881 H   0  0  0  0  0  0  0  0  0  0  0  0
   -1.2231    1.1766   -0.8790 H   0  0  0  0  0  0  0  0  0  0  0  0
   -0.6898   -1.4883    0.5633 H   0  0  0  0  0  0  0  0  0  0  0  0
   -0.7195    0.0878    1.3292 H   0  0  0  0  0  0  0  0  0  0  0  0
    1.0778    1.7602    0.9067 H   0  0  0  0  0  0  0  0  0  0  0  0
    3.4541    2.0790    0.3693 H   0  0  0  0  0  0  0  0  0  0  0  0
    1.1956   -2.1666   -0.8570 H   0  0  0  0  0  0  0  0  0  0  0  0
  1  2  1  0
  2  3  1  0
  3  4  1  0
  4  5  1  0
  5  6  2  0
  6  7  1  0
  7  8  2  0
  8  9  1  0
  8 10  1  0
 10 11  1  0
 10 12  2  0
 12  5  1  0
  1 13  1  0
  1 14  1  0
  1 15  1  0
  2 16  1  0
  2 17  1  0
  3 18  1  0
  3 19  1  0
  4 20  1  0
  4 21  1  0
  6 22  1  0
  7 23  1  0
 12 24  1  0
M  END
