
     RDKit          3D

 14 14  0  0  0  0  0  0  0  0999 V2000
   -3.6153    2.3156    0.3746 S   0  0  0  0  0  0  0  0  0  0  0  0
   -2.6632    0.8661    0.8571 C   0  0  0  0  0  0  0  0  0  0  0  0
   -2.0497   -0.0836    1.1777 N   0  0  0  0  0  0  0  0  0  0  0  0
   -0.8111   -0.1617    0.5202 C   0  0  0  0  0  0  0  0  0  0  0  0
   -0.6934   -0.8500   -0.6928 C   0  0  0  0  0  0  0  0  0  0  0  0
    0.5443   -0.9561   -1.3323 C   0  0  0  0  0  0  0  0  0  0  0  0
    1.6847   -0.3870   -0.7569 C   0  0  0  0  0  0  0  0  0  0  0  0
    3.3208   -0.5817   -1.7002 Br  0  0  0  0  0  0  0  0  0  0  0  0
    1.5817    0.2832    0.4668 C   0  0  0  0  0  0  0  0  0  0  0  0
    3.0690    1.0779    1.3411 Br  0  0  0  0  0  0  0  0  0  0  0  0
    0.3383    0.3868    1.1029 C   0  0  0  0  0  0  0  0  0  0  0  0
   -1.5699   -1.3115   -1.1430 H   0  0  0  0  0  0  0  0  0  0  0  0
    0.6082   -1.4911   -2.2774 H   0  0  0  0  0  0  0  0  0  0  0  0
    0.2555    0.8933    2.0622 H   0  0  0  0  0  0  0  0  0  0  0  0
  1  2  2  0
  2  3  2  0
  3  4  1  0
  4  5  2  0
  5  6  1  0
  6  7  2  0
  7  8  1  0
  7  9  1  0
  9 10  1  0
  9 11  2  0
 11  4  1  0
  5 12  1  0
  6 13  1  0
 11 14  1  0
M  END
