
     RDKit          3D

 18 18  0  0  0  0  0  0  0  0999 V2000
    2.7736   -0.9251    0.2724 C   0  0  0  0  0  0  0  0  0  0  0  0
    2.1301    0.3018    0.5891 O   0  0  0  0  0  0  0  0  0  0  0  0
    0.7847    0.4096    0.3390 C   0  0  0  0  0  0  0  0  0  0  0  0
    0.0152   -0.6053   -0.2475 C   0  0  0  0  0  0  0  0  0  0  0  0
   -1.3466   -0.4239   -0.5084 C   0  0  0  0  0  0  0  0  0  0  0  0
   -2.1198   -1.4889   -0.9843 N   0  0  0  0  0  0  0  0  0  0  0  0
   -1.9620    0.7515   -0.0803 C   0  0  0  0  0  0  0  0  0  0  0  0
   -1.2140    1.7790    0.5056 C   0  0  0  0  0  0  0  0  0  0  0  0
   -2.1691    3.3486    1.0017 Br  0  0  0  0  0  0  0  0  0  0  0  0
    0.1635    1.6184    0.7082 C   0  0  0  0  0  0  0  0  0  0  0  0
    1.2169    3.0049    1.4971 Br  0  0  0  0  0  0  0  0  0  0  0  0
    3.8274   -0.8312    0.5519 H   0  0  0  0  0  0  0  0  0  0  0  0
    2.7320   -1.1259   -0.8031 H   0  0  0  0  0  0  0  0  0  0  0  0
    2.3497   -1.7539    0.8487 H   0  0  0  0  0  0  0  0  0  0  0  0
    0.4598   -1.5580   -0.5153 H   0  0  0  0  0  0  0  0  0  0  0  0
   -1.6102   -2.1605   -1.5505 H   0  0  0  0  0  0  0  0  0  0  0  0
   -2.9959   -1.2108   -1.4174 H   0  0  0  0  0  0  0  0  0  0  0  0
   -3.0355    0.8697   -0.2070 H   0  0  0  0  0  0  0  0  0  0  0  0
  1  2  1  0
  2  3  1  0
  3  4  2  0
  4  5  1  0
  5  6  1  0
  5  7  2  0
  7  8  1  0
  8  9  1  0
  8 10  2  0
 10 11  1  0
 10  3  1  0
  1 12  1  0
  1 13  1  0
  1 14  1  0
  4 15  1  0
  6 16  1  0
  6 17  1  0
  7 18  1  0
M  END
