
     RDKit          3D

 12 12  0  0  0  0  0  0  0  0999 V2000
   -2.1350   -0.7520    0.1570 N   0  0  0  0  0  0  0  0  0  0  0  0
   -0.8382   -0.2489    0.0703 C   0  0  0  0  0  0  0  0  0  0  0  0
    0.1401   -1.1741    0.1384 N   0  0  0  0  0  0  0  0  0  0  0  0
    1.4206   -0.7141    0.1035 C   0  0  0  0  0  0  0  0  0  0  0  0
    2.7650   -2.0569    0.1991 Br  0  0  0  0  0  0  0  0  0  0  0  0
    1.7142    0.6477    0.0010 C   0  0  0  0  0  0  0  0  0  0  0  0
    3.4925    1.3201   -0.0576 Br  0  0  0  0  0  0  0  0  0  0  0  0
    0.7379    1.5867   -0.0680 N   0  0  0  0  0  0  0  0  0  0  0  0
   -0.5334    1.1202   -0.0216 C   0  0  0  0  0  0  0  0  0  0  0  0
   -1.9201    2.4177   -0.1147 Br  0  0  0  0  0  0  0  0  0  0  0  0
   -2.7520   -0.3784   -0.5565 H   0  0  0  0  0  0  0  0  0  0  0  0
   -2.0914   -1.7681    0.1491 H   0  0  0  0  0  0  0  0  0  0  0  0
  1  2  1  0
  2  3  2  0
  3  4  1  0
  4  5  1  0
  4  6  2  0
  6  7  1  0
  6  8  1  0
  8  9  2  0
  9 10  1  0
  9  2  1  0
  1 11  1  0
  1 12  1  0
M  END
