
     RDKit          3D

 16 15  0  0  0  0  0  0  0  0999 V2000
    0.6882    0.0000    0.0000 Cl  0  0  0  0  0  0  0  0  0  0  0  0
    2.2778   -0.2170   -0.1945 N   0  0  0  0  0  0  0  0  0  0  0  0
    0.8669   -0.1135   -0.0755 C   0  0  0  0  0  0  0  0  0  0  0  0
    0.1314   -1.2653   -0.0562 C   0  0  0  0  0  0  0  0  0  0  0  0
   -1.2535   -1.0919    0.0631 C   0  0  0  0  0  0  0  0  0  0  0  0
   -2.3922   -2.6075    0.1025 Br  0  0  0  0  0  0  0  0  0  0  0  0
   -1.7901    0.1706    0.1517 C   0  0  0  0  0  0  0  0  0  0  0  0
   -1.0040    1.3179    0.1282 C   0  0  0  0  0  0  0  0  0  0  0  0
   -1.8023    3.0314    0.2542 Br  0  0  0  0  0  0  0  0  0  0  0  0
    0.3816    1.1754    0.0098 C   0  0  0  0  0  0  0  0  0  0  0  0
   -0.6882    0.0000    0.0000 H   0  0  0  0  0  0  0  0  0  0  0  0
    2.9583    0.5640   -0.0782 H   0  0  0  0  0  0  0  0  0  0  0  0
    2.8807   -1.0421   -0.4085 H   0  0  0  0  0  0  0  0  0  0  0  0
    0.5861   -2.2448   -0.1281 H   0  0  0  0  0  0  0  0  0  0  0  0
   -2.8713    0.2797    0.2440 H   0  0  0  0  0  0  0  0  0  0  0  0
    1.0308    2.0431   -0.0125 H   0  0  0  0  0  0  0  0  0  0  0  0
  2  3  1  0
  3  4  2  0
  4  5  1  0
  5  6  1  0
  5  7  2  0
  7  8  1  0
  8  9  1  0
  8 10  2  0
 10  3  1  0
  1 11  1  0
  2 12  1  0
  2 13  1  0
  4 14  1  0
  7 15  1  0
 10 16  1  0
M  END
