
     RDKit          3D

 18 18  0  0  0  0  0  0  0  0999 V2000
   -2.4769    0.2583    0.6631 C   0  0  0  0  0  0  0  0  0  0  0  0
   -1.7004   -0.3401   -0.4997 C   0  0  0  0  0  0  0  0  0  0  0  0
   -0.2120   -0.1818   -0.3196 C   0  0  0  0  0  0  0  0  0  0  0  0
    0.5312   -1.1620    0.3532 C   0  0  0  0  0  0  0  0  0  0  0  0
    1.9065   -1.0008    0.5313 C   0  0  0  0  0  0  0  0  0  0  0  0
    2.8936   -2.3348    1.4385 Br  0  0  0  0  0  0  0  0  0  0  0  0
    2.5590    0.1317    0.0504 C   0  0  0  0  0  0  0  0  0  0  0  0
    1.8205    1.1090   -0.6121 C   0  0  0  0  0  0  0  0  0  0  0  0
    2.6901    2.6559   -1.2660 Br  0  0  0  0  0  0  0  0  0  0  0  0
    0.4446    0.9611   -0.7973 C   0  0  0  0  0  0  0  0  0  0  0  0
   -2.2750    1.3299    0.7661 H   0  0  0  0  0  0  0  0  0  0  0  0
   -2.2115   -0.2257    1.6091 H   0  0  0  0  0  0  0  0  0  0  0  0
   -3.5524    0.1294    0.5062 H   0  0  0  0  0  0  0  0  0  0  0  0
   -2.0112    0.1362   -1.4376 H   0  0  0  0  0  0  0  0  0  0  0  0
   -1.9484   -1.4035   -0.6032 H   0  0  0  0  0  0  0  0  0  0  0  0
    0.0338   -2.0498    0.7382 H   0  0  0  0  0  0  0  0  0  0  0  0
    3.6291    0.2521    0.1921 H   0  0  0  0  0  0  0  0  0  0  0  0
   -0.1205    1.7349   -1.3127 H   0  0  0  0  0  0  0  0  0  0  0  0
  1  2  1  0
  2  3  1  0
  3  4  2  0
  4  5  1  0
  5  6  1  0
  5  7  2  0
  7  8  1  0
  8  9  1  0
  8 10  2  0
 10  3  1  0
  1 11  1  0
  1 12  1  0
  1 13  1  0
  2 14  1  0
  2 15  1  0
  4 16  1  0
  7 17  1  0
 10 18  1  0
M  END
