
     RDKit          3D

 23 23  0  0  0  0  0  0  0  0999 V2000
    3.1377    0.6530    0.6767 C   0  0  0  0  0  0  0  0  0  0  0  0
    1.8994    0.6869    1.3940 O   0  0  0  0  0  0  0  0  0  0  0  0
    0.9822   -0.1642    0.8315 C   0  0  0  0  0  0  0  0  0  0  0  0
    0.8815   -1.4909    1.2654 C   0  0  0  0  0  0  0  0  0  0  0  0
    2.0017   -2.1909    2.6286 Br  0  0  0  0  0  0  0  0  0  0  0  0
   -0.0724   -2.3447    0.7057 C   0  0  0  0  0  0  0  0  0  0  0  0
   -0.9522   -1.8681   -0.2698 C   0  0  0  0  0  0  0  0  0  0  0  0
   -2.1730   -3.1042   -1.0344 Br  0  0  0  0  0  0  0  0  0  0  0  0
   -0.9078   -0.5259   -0.6656 C   0  0  0  0  0  0  0  0  0  0  0  0
   -1.7421   -0.0534   -1.6460 O   0  0  0  0  0  0  0  0  0  0  0  0
   -3.0023    0.3546   -1.1043 C   0  0  0  0  0  0  0  0  0  0  0  0
    0.0680    0.3198   -0.1165 C   0  0  0  0  0  0  0  0  0  0  0  0
    0.1572    1.7203   -0.5488 C   0  0  0  0  0  0  0  0  0  0  0  0
    1.0627    2.2247   -1.1838 O   0  0  0  0  0  0  0  0  0  0  0  0
   -0.8958    2.4285   -0.1023 O   0  0  0  0  0  0  0  0  0  0  0  0
    3.7633   -0.1659    1.0439 H   0  0  0  0  0  0  0  0  0  0  0  0
    3.0018    0.5546   -0.4060 H   0  0  0  0  0  0  0  0  0  0  0  0
    3.6618    1.5935    0.8709 H   0  0  0  0  0  0  0  0  0  0  0  0
   -0.1286   -3.3822    1.0282 H   0  0  0  0  0  0  0  0  0  0  0  0
   -2.9799    0.5262   -0.0215 H   0  0  0  0  0  0  0  0  0  0  0  0
   -3.2931    1.2884   -1.5949 H   0  0  0  0  0  0  0  0  0  0  0  0
   -3.7585   -0.4003   -1.3380 H   0  0  0  0  0  0  0  0  0  0  0  0
   -0.7119    3.3398   -0.4131 H   0  0  0  0  0  0  0  0  0  0  0  0
  1  2  1  0
  2  3  1  0
  3  4  2  0
  4  5  1  0
  4  6  1  0
  6  7  2  0
  7  8  1  0
  7  9  1  0
  9 10  1  0
 10 11  1  0
  9 12  2  0
 12 13  1  0
 13 14  2  0
 13 15  1  0
 12  3  1  0
  1 16  1  0
  1 17  1  0
  1 18  1  0
  6 19  1  0
 11 20  1  0
 11 21  1  0
 11 22  1  0
 15 23  1  0
M  END
