
     RDKit          3D

 17 17  0  0  0  0  0  0  0  0999 V2000
    2.7710    0.0389   -0.0592 C   0  0  0  0  0  0  0  0  0  0  0  0
    1.3014    0.3352    0.0370 C   0  0  0  0  0  0  0  0  0  0  0  0
    0.9949    1.6278    0.3093 N   0  0  0  0  0  0  0  0  0  0  0  0
   -0.3135    1.9474    0.4067 C   0  0  0  0  0  0  0  0  0  0  0  0
   -1.3548    1.0409    0.2462 C   0  0  0  0  0  0  0  0  0  0  0  0
   -3.1192    1.7138    0.4277 Br  0  0  0  0  0  0  0  0  0  0  0  0
   -1.0516   -0.2998   -0.0363 C   0  0  0  0  0  0  0  0  0  0  0  0
   -2.1207   -1.3450   -0.2244 C   0  0  0  0  0  0  0  0  0  0  0  0
    0.3153   -0.6493   -0.1408 C   0  0  0  0  0  0  0  0  0  0  0  0
    0.8299   -2.4500   -0.5216 Br  0  0  0  0  0  0  0  0  0  0  0  0
    3.0678   -0.6928    0.6984 H   0  0  0  0  0  0  0  0  0  0  0  0
    3.3602    0.9465    0.1122 H   0  0  0  0  0  0  0  0  0  0  0  0
    3.0253   -0.3337   -1.0562 H   0  0  0  0  0  0  0  0  0  0  0  0
   -0.5031    2.9952    0.6262 H   0  0  0  0  0  0  0  0  0  0  0  0
   -3.1373   -0.9605   -0.1248 H   0  0  0  0  0  0  0  0  0  0  0  0
   -2.0135   -2.1347    0.5269 H   0  0  0  0  0  0  0  0  0  0  0  0
   -2.0521   -1.7798   -1.2273 H   0  0  0  0  0  0  0  0  0  0  0  0
  1  2  1  0
  2  3  2  0
  3  4  1  0
  4  5  2  0
  5  6  1  0
  5  7  1  0
  7  8  1  0
  7  9  2  0
  9 10  1  0
  9  2  1  0
  1 11  1  0
  1 12  1  0
  1 13  1  0
  4 14  1  0
  8 15  1  0
  8 16  1  0
  8 17  1  0
M  END
