
     RDKit          3D

 29 29  0  0  0  0  0  0  0  0999 V2000
   -3.4091   -0.2390    1.8369 C   0  0  0  0  0  0  0  0  0  0  0  0
   -2.8150   -0.5221    0.4655 C   0  0  0  0  0  0  0  0  0  0  0  0
   -1.9270    0.6301   -0.0045 C   0  0  0  0  0  0  0  0  0  0  0  0
   -1.3798    0.4392   -1.4219 C   0  0  0  0  0  0  0  0  0  0  0  0
   -0.5098   -0.8034   -1.6381 C   0  0  0  0  0  0  0  0  0  0  0  0
    0.6981   -0.9371   -0.7073 C   0  0  0  0  0  0  0  0  0  0  0  0
    1.6805    0.2267   -0.8224 C   0  0  0  0  0  0  0  0  0  0  0  0
    2.8627    0.0193   -0.0118 N   0  0  0  0  0  0  0  0  0  0  0  0
    3.9494   -0.5759   -0.5401 N   0  0  0  0  0  0  0  0  0  0  0  0
    4.7848   -0.5705    0.5042 C   0  0  0  0  0  0  0  0  0  0  0  0
    6.5263   -1.2857    0.4058 Br  0  0  0  0  0  0  0  0  0  0  0  0
    4.2843   -0.0102    1.6471 N   0  0  0  0  0  0  0  0  0  0  0  0
    3.0722    0.3524    1.2951 C   0  0  0  0  0  0  0  0  0  0  0  0
    1.8434    1.1964    2.4809 Br  0  0  0  0  0  0  0  0  0  0  0  0
   -2.6212   -0.1011    2.5843 H   0  0  0  0  0  0  0  0  0  0  0  0
   -4.0387   -1.0751    2.1570 H   0  0  0  0  0  0  0  0  0  0  0  0
   -4.0276    0.6639    1.8183 H   0  0  0  0  0  0  0  0  0  0  0  0
   -2.2379   -1.4513    0.5199 H   0  0  0  0  0  0  0  0  0  0  0  0
   -3.6274   -0.6833   -0.2523 H   0  0  0  0  0  0  0  0  0  0  0  0
   -1.1017    0.7750    0.7013 H   0  0  0  0  0  0  0  0  0  0  0  0
   -2.5098    1.5599    0.0112 H   0  0  0  0  0  0  0  0  0  0  0  0
   -2.2229    0.3936   -2.1230 H   0  0  0  0  0  0  0  0  0  0  0  0
   -0.8092    1.3337   -1.6985 H   0  0  0  0  0  0  0  0  0  0  0  0
   -1.1294   -1.7025   -1.5378 H   0  0  0  0  0  0  0  0  0  0  0  0
   -0.1564   -0.7982   -2.6771 H   0  0  0  0  0  0  0  0  0  0  0  0
    0.3641   -1.0488    0.3308 H   0  0  0  0  0  0  0  0  0  0  0  0
    1.2167   -1.8728   -0.9542 H   0  0  0  0  0  0  0  0  0  0  0  0
    2.0130    0.3523   -1.8596 H   0  0  0  0  0  0  0  0  0  0  0  0
    1.2275    1.1724   -0.5096 H   0  0  0  0  0  0  0  0  0  0  0  0
  1  2  1  0
  2  3  1  0
  3  4  1  0
  4  5  1  0
  5  6  1  0
  6  7  1  0
  7  8  1  0
  8  9  1  0
  9 10  2  0
 10 11  1  0
 10 12  1  0
 12 13  2  0
 13 14  1  0
 13  8  1  0
  1 15  1  0
  1 16  1  0
  1 17  1  0
  2 18  1  0
  2 19  1  0
  3 20  1  0
  3 21  1  0
  4 22  1  0
  4 23  1  0
  5 24  1  0
  5 25  1  0
  6 26  1  0
  6 27  1  0
  7 28  1  0
  7 29  1  0
M  END
