
     RDKit          3D

 18 18  0  0  0  0  0  0  0  0999 V2000
    2.8626   -0.0386   -0.0893 C   0  0  0  0  0  0  0  0  0  0  0  0
    1.3578    0.0481   -0.1581 C   0  0  0  0  0  0  0  0  0  0  0  0
    0.6985    1.1234   -0.7867 C   0  0  0  0  0  0  0  0  0  0  0  0
    1.6239    2.5727   -1.6042 Br  0  0  0  0  0  0  0  0  0  0  0  0
   -0.6995    1.1898   -0.8350 C   0  0  0  0  0  0  0  0  0  0  0  0
   -1.4662    0.1864   -0.2446 C   0  0  0  0  0  0  0  0  0  0  0  0
   -2.9355    0.2961   -0.3197 C   0  0  0  0  0  0  0  0  0  0  0  0
   -3.6554   -0.5577    0.1880 O   0  0  0  0  0  0  0  0  0  0  0  0
   -0.8438   -0.8839    0.4042 C   0  0  0  0  0  0  0  0  0  0  0  0
   -1.5788   -1.8776    1.0021 O   0  0  0  0  0  0  0  0  0  0  0  0
    0.5594   -0.9498    0.4525 C   0  0  0  0  0  0  0  0  0  0  0  0
    1.3697   -2.4148    1.3811 Br  0  0  0  0  0  0  0  0  0  0  0  0
    3.2031    0.1667    0.9308 H   0  0  0  0  0  0  0  0  0  0  0  0
    3.3725    0.6607   -0.7546 H   0  0  0  0  0  0  0  0  0  0  0  0
    3.2074   -1.0309   -0.3989 H   0  0  0  0  0  0  0  0  0  0  0  0
   -1.1842    2.0282   -1.3309 H   0  0  0  0  0  0  0  0  0  0  0  0
   -3.3548    1.1696   -0.8464 H   0  0  0  0  0  0  0  0  0  0  0  0
   -2.5366   -1.6884    0.8806 H   0  0  0  0  0  0  0  0  0  0  0  0
  1  2  1  0
  2  3  2  0
  3  4  1  0
  3  5  1  0
  5  6  2  0
  6  7  1  0
  7  8  2  0
  6  9  1  0
  9 10  1  0
  9 11  2  0
 11 12  1  0
 11  2  1  0
  1 13  1  0
  1 14  1  0
  1 15  1  0
  5 16  1  0
  7 17  1  0
 10 18  1  0
M  END
