
     RDKit          3D

 14 14  0  0  0  0  0  0  0  0999 V2000
   -2.2039    0.5896    0.0388 C   0  0  0  0  0  0  0  0  0  0  0  0
   -0.7388    0.2641    0.0148 C   0  0  0  0  0  0  0  0  0  0  0  0
    0.1001    1.3329    0.0346 N   0  0  0  0  0  0  0  0  0  0  0  0
    1.4327    1.0906    0.0142 C   0  0  0  0  0  0  0  0  0  0  0  0
    2.3684    2.5335    0.0429 Cl  0  0  0  0  0  0  0  0  0  0  0  0
    1.9851   -0.1824   -0.0256 C   0  0  0  0  0  0  0  0  0  0  0  0
    3.8478   -0.5160   -0.0540 Br  0  0  0  0  0  0  0  0  0  0  0  0
    1.1142   -1.2701   -0.0456 C   0  0  0  0  0  0  0  0  0  0  0  0
   -0.2640   -1.0491   -0.0253 C   0  0  0  0  0  0  0  0  0  0  0  0
   -1.4129   -2.5550   -0.0535 Br  0  0  0  0  0  0  0  0  0  0  0  0
   -2.6783    0.1623    0.9276 H   0  0  0  0  0  0  0  0  0  0  0  0
   -2.6970    0.2101   -0.8614 H   0  0  0  0  0  0  0  0  0  0  0  0
   -2.3587    1.6735    0.0694 H   0  0  0  0  0  0  0  0  0  0  0  0
    1.5053   -2.2841   -0.0768 H   0  0  0  0  0  0  0  0  0  0  0  0
  1  2  1  0
  2  3  2  0
  3  4  1  0
  4  5  1  0
  4  6  2  0
  6  7  1  0
  6  8  1  0
  8  9  2  0
  9 10  1  0
  9  2  1  0
  1 11  1  0
  1 12  1  0
  1 13  1  0
  8 14  1  0
M  END
