
     RDKit          3D

 15 15  0  0  0  0  0  0  0  0999 V2000
   -2.3576    0.2382   -0.3522 C   0  0  0  0  0  0  0  0  0  0  0  0
   -0.8879    0.3278   -0.0732 C   0  0  0  0  0  0  0  0  0  0  0  0
   -0.2018   -0.8501   -0.1145 N   0  0  0  0  0  0  0  0  0  0  0  0
    1.1225   -0.7967    0.1358 C   0  0  0  0  0  0  0  0  0  0  0  0
    1.7757   -2.0280    0.1250 N   0  0  0  0  0  0  0  0  0  0  0  0
    1.7489    0.4240    0.4338 C   0  0  0  0  0  0  0  0  0  0  0  0
    3.6168    0.4924    0.7866 Br  0  0  0  0  0  0  0  0  0  0  0  0
    1.0829    1.6029    0.4673 N   0  0  0  0  0  0  0  0  0  0  0  0
   -0.2439    1.5347    0.2144 C   0  0  0  0  0  0  0  0  0  0  0  0
   -1.1863    3.1847    0.2687 Br  0  0  0  0  0  0  0  0  0  0  0  0
   -2.6506   -0.7986   -0.5500 H   0  0  0  0  0  0  0  0  0  0  0  0
   -2.6192    0.8293   -1.2352 H   0  0  0  0  0  0  0  0  0  0  0  0
   -2.9356    0.5858    0.5095 H   0  0  0  0  0  0  0  0  0  0  0  0
    2.6232   -2.0121   -0.4318 H   0  0  0  0  0  0  0  0  0  0  0  0
    1.1128   -2.7341   -0.1843 H   0  0  0  0  0  0  0  0  0  0  0  0
  1  2  1  0
  2  3  2  0
  3  4  1  0
  4  5  1  0
  4  6  2  0
  6  7  1  0
  6  8  1  0
  8  9  2  0
  9 10  1  0
  9  2  1  0
  1 11  1  0
  1 12  1  0
  1 13  1  0
  5 14  1  0
  5 15  1  0
M  END
