
     RDKit          3D

 18 18  0  0  0  0  0  0  0  0999 V2000
    2.8979   -0.6762    0.2582 C   0  0  0  0  0  0  0  0  0  0  0  0
    2.0273    0.4402   -0.2563 C   0  0  0  0  0  0  0  0  0  0  0  0
    2.5173    1.4524   -0.7515 O   0  0  0  0  0  0  0  0  0  0  0  0
    0.5426    0.3087   -0.1599 C   0  0  0  0  0  0  0  0  0  0  0  0
   -0.2510    1.3589   -0.6444 C   0  0  0  0  0  0  0  0  0  0  0  0
   -1.6445    1.2810   -0.5757 C   0  0  0  0  0  0  0  0  0  0  0  0
   -2.6623    2.7336   -1.2476 Br  0  0  0  0  0  0  0  0  0  0  0  0
   -2.2569    0.1547   -0.0232 C   0  0  0  0  0  0  0  0  0  0  0  0
   -3.6233    0.0905    0.0383 O   0  0  0  0  0  0  0  0  0  0  0  0
   -1.4655   -0.8915    0.4594 C   0  0  0  0  0  0  0  0  0  0  0  0
   -2.2624   -2.4376    1.2170 Br  0  0  0  0  0  0  0  0  0  0  0  0
   -0.0708   -0.8208    0.3942 C   0  0  0  0  0  0  0  0  0  0  0  0
    2.7358   -0.8203    1.3295 H   0  0  0  0  0  0  0  0  0  0  0  0
    3.9490   -0.4104    0.1075 H   0  0  0  0  0  0  0  0  0  0  0  0
    2.6993   -1.5975   -0.2953 H   0  0  0  0  0  0  0  0  0  0  0  0
    0.2218    2.2401   -1.0765 H   0  0  0  0  0  0  0  0  0  0  0  0
   -3.8725   -0.7569    0.4492 H   0  0  0  0  0  0  0  0  0  0  0  0
    0.5182   -1.6491    0.7771 H   0  0  0  0  0  0  0  0  0  0  0  0
  1  2  1  0
  2  3  2  0
  2  4  1  0
  4  5  2  0
  5  6  1  0
  6  7  1  0
  6  8  2  0
  8  9  1  0
  8 10  1  0
 10 11  1  0
 10 12  2  0
 12  4  1  0
  1 13  1  0
  1 14  1  0
  1 15  1  0
  5 16  1  0
  9 17  1  0
 12 18  1  0
M  END
