
     RDKit          3D

 22 22  0  0  0  0  0  0  0  0999 V2000
   -2.1863    0.6409    0.9786 C   0  0  0  0  0  0  0  0  0  0  0  0
   -1.7382   -0.0382   -0.3122 C   0  0  0  0  0  0  0  0  0  0  0  0
   -2.8433   -0.9575   -0.8282 C   0  0  0  0  0  0  0  0  0  0  0  0
   -0.6000   -0.8681   -0.0566 O   0  0  0  0  0  0  0  0  0  0  0  0
    0.6551   -0.3373   -0.1552 C   0  0  0  0  0  0  0  0  0  0  0  0
    0.9735    1.0071   -0.3449 C   0  0  0  0  0  0  0  0  0  0  0  0
    2.3133    1.3996   -0.4200 C   0  0  0  0  0  0  0  0  0  0  0  0
    2.7360    3.2263   -0.6774 Br  0  0  0  0  0  0  0  0  0  0  0  0
    3.3419    0.4681   -0.3054 C   0  0  0  0  0  0  0  0  0  0  0  0
    3.0187   -0.8707   -0.1102 C   0  0  0  0  0  0  0  0  0  0  0  0
    4.3976   -2.1537    0.0528 Br  0  0  0  0  0  0  0  0  0  0  0  0
    1.6860   -1.2742   -0.0332 C   0  0  0  0  0  0  0  0  0  0  0  0
   -3.0885    1.2392    0.8176 H   0  0  0  0  0  0  0  0  0  0  0  0
   -1.4053    1.2979    1.3735 H   0  0  0  0  0  0  0  0  0  0  0  0
   -2.3925   -0.1004    1.7589 H   0  0  0  0  0  0  0  0  0  0  0  0
   -1.5365    0.6982   -1.0982 H   0  0  0  0  0  0  0  0  0  0  0  0
   -2.5195   -1.4635   -1.7444 H   0  0  0  0  0  0  0  0  0  0  0  0
   -3.7583   -0.3977   -1.0447 H   0  0  0  0  0  0  0  0  0  0  0  0
   -3.0750   -1.7434   -0.1005 H   0  0  0  0  0  0  0  0  0  0  0  0
    0.2047    1.7670   -0.4272 H   0  0  0  0  0  0  0  0  0  0  0  0
    4.3802    0.7818   -0.3646 H   0  0  0  0  0  0  0  0  0  0  0  0
    1.4366   -2.3216    0.1206 H   0  0  0  0  0  0  0  0  0  0  0  0
  1  2  1  0
  2  3  1  0
  2  4  1  0
  4  5  1  0
  5  6  2  0
  6  7  1  0
  7  8  1  0
  7  9  2  0
  9 10  1  0
 10 11  1  0
 10 12  2  0
 12  5  1  0
  1 13  1  0
  1 14  1  0
  1 15  1  0
  2 16  1  0
  3 17  1  0
  3 18  1  0
  3 19  1  0
  6 20  1  0
  9 21  1  0
 12 22  1  0
M  END
