
     RDKit          3D

 12 12  0  0  0  0  0  0  0  0999 V2000
   -0.7260    3.0344   -0.0264 Cl  0  0  0  0  0  0  0  0  0  0  0  0
   -0.3437    1.3459   -0.0121 C   0  0  0  0  0  0  0  0  0  0  0  0
    1.0124    1.0038    0.0152 C   0  0  0  0  0  0  0  0  0  0  0  0
    1.3858   -0.3364    0.0278 C   0  0  0  0  0  0  0  0  0  0  0  0
    3.2179   -0.7985    0.0648 Br  0  0  0  0  0  0  0  0  0  0  0  0
    0.4209   -1.3397    0.0136 C   0  0  0  0  0  0  0  0  0  0  0  0
   -0.9365   -0.9986   -0.0137 C   0  0  0  0  0  0  0  0  0  0  0  0
   -2.1793   -2.4395   -0.0315 Br  0  0  0  0  0  0  0  0  0  0  0  0
   -1.3327    0.3485   -0.0269 C   0  0  0  0  0  0  0  0  0  0  0  0
   -3.0127    0.7810   -0.0608 Cl  0  0  0  0  0  0  0  0  0  0  0  0
    1.7704    1.7839    0.0264 H   0  0  0  0  0  0  0  0  0  0  0  0
    0.7236   -2.3848    0.0237 H   0  0  0  0  0  0  0  0  0  0  0  0
  1  2  1  0
  2  3  2  0
  3  4  1  0
  4  5  1  0
  4  6  2  0
  6  7  1  0
  7  8  1  0
  7  9  2  0
  9 10  1  0
  9  2  1  0
  3 11  1  0
  6 12  1  0
M  END
