
     RDKit          3D

  9  9  0  0  0  0  0  0  0  0999 V2000
    3.0609   -0.1199    0.0865 Br  0  0  0  0  0  0  0  0  0  0  0  0
    1.1861   -0.2346    0.0517 C   0  0  0  0  0  0  0  0  0  0  0  0
    0.3467    0.8854   -0.0769 C   0  0  0  0  0  0  0  0  0  0  0  0
   -0.9150    0.3490   -0.0560 C   0  0  0  0  0  0  0  0  0  0  0  0
   -2.5541    1.2838   -0.1863 Br  0  0  0  0  0  0  0  0  0  0  0  0
   -0.7688   -0.9986    0.0775 N   0  0  0  0  0  0  0  0  0  0  0  0
    0.5184   -1.3866    0.1464 N   0  0  0  0  0  0  0  0  0  0  0  0
    0.6216    1.9256   -0.1705 H   0  0  0  0  0  0  0  0  0  0  0  0
   -1.4957   -1.7041    0.1277 H   0  0  0  0  0  0  0  0  0  0  0  0
  1  2  1  0
  2  3  1  0
  3  4  2  0
  4  5  1  0
  4  6  1  0
  6  7  1  0
  7  2  2  0
  3  8  1  0
  6  9  1  0
M  END
