
     RDKit          3D

 16 16  0  0  0  0  0  0  0  0999 V2000
   -2.7123   -0.8873    0.4429 O   0  0  0  0  0  0  0  0  0  0  0  0
   -2.0152   -0.3434   -0.6682 C   0  0  0  0  0  0  0  0  0  0  0  0
   -0.5798   -0.0666   -0.3113 C   0  0  0  0  0  0  0  0  0  0  0  0
   -0.1872    1.2037    0.1337 C   0  0  0  0  0  0  0  0  0  0  0  0
    1.1422    1.4425    0.4872 C   0  0  0  0  0  0  0  0  0  0  0  0
    1.6566    3.1635    1.0785 Br  0  0  0  0  0  0  0  0  0  0  0  0
    2.0925    0.4270    0.4126 C   0  0  0  0  0  0  0  0  0  0  0  0
    1.7007   -0.8385   -0.0172 C   0  0  0  0  0  0  0  0  0  0  0  0
    2.9767   -2.2305   -0.1141 Br  0  0  0  0  0  0  0  0  0  0  0  0
    0.3752   -1.0918   -0.3739 C   0  0  0  0  0  0  0  0  0  0  0  0
   -2.1324   -0.8391    1.2217 H   0  0  0  0  0  0  0  0  0  0  0  0
   -2.0777   -1.0504   -1.5022 H   0  0  0  0  0  0  0  0  0  0  0  0
   -2.5235    0.5745   -0.9816 H   0  0  0  0  0  0  0  0  0  0  0  0
   -0.9205    2.0050    0.2035 H   0  0  0  0  0  0  0  0  0  0  0  0
    3.1255    0.6186    0.6893 H   0  0  0  0  0  0  0  0  0  0  0  0
    0.0792   -2.0872   -0.7008 H   0  0  0  0  0  0  0  0  0  0  0  0
  1  2  1  0
  2  3  1  0
  3  4  2  0
  4  5  1  0
  5  6  1  0
  5  7  2  0
  7  8  1  0
  8  9  1  0
  8 10  2  0
 10  3  1  0
  1 11  1  0
  2 12  1  0
  2 13  1  0
  4 14  1  0
  7 15  1  0
 10 16  1  0
M  END
