
     RDKit          3D

 21 22  0  0  0  0  0  0  0  0999 V2000
    4.1574    0.6603    1.4321 F   0  0  0  0  0  0  0  0  0  0  0  0
    3.0096    0.3123    0.8365 C   0  0  0  0  0  0  0  0  0  0  0  0
    2.2975    1.2608    0.1140 C   0  0  0  0  0  0  0  0  0  0  0  0
    1.1019    0.8980   -0.5076 C   0  0  0  0  0  0  0  0  0  0  0  0
    0.6134   -0.4163   -0.4025 C   0  0  0  0  0  0  0  0  0  0  0  0
   -0.6792   -0.8096   -1.0768 C   0  0  0  0  0  0  0  0  0  0  0  0
   -1.8187   -0.1087   -0.5135 N   0  0  0  0  0  0  0  0  0  0  0  0
   -2.3536    0.9542   -1.1532 N   0  0  0  0  0  0  0  0  0  0  0  0
   -3.3631    1.2711   -0.3353 C   0  0  0  0  0  0  0  0  0  0  0  0
   -4.5184    2.7210   -0.6769 Br  0  0  0  0  0  0  0  0  0  0  0  0
   -3.5019    0.4633    0.7587 N   0  0  0  0  0  0  0  0  0  0  0  0
   -2.5192   -0.3973    0.6226 C   0  0  0  0  0  0  0  0  0  0  0  0
   -2.1876   -1.8102    1.8562 Br  0  0  0  0  0  0  0  0  0  0  0  0
    1.3536   -1.3608    0.3279 C   0  0  0  0  0  0  0  0  0  0  0  0
    2.5493   -0.9939    0.9482 C   0  0  0  0  0  0  0  0  0  0  0  0
    2.6763    2.2754    0.0390 H   0  0  0  0  0  0  0  0  0  0  0  0
    0.5508    1.6495   -1.0727 H   0  0  0  0  0  0  0  0  0  0  0  0
   -0.8742   -1.8841   -0.9889 H   0  0  0  0  0  0  0  0  0  0  0  0
   -0.6277   -0.5791   -2.1476 H   0  0  0  0  0  0  0  0  0  0  0  0
    1.0086   -2.3886    0.4226 H   0  0  0  0  0  0  0  0  0  0  0  0
    3.1254   -1.7172    1.5171 H   0  0  0  0  0  0  0  0  0  0  0  0
  1  2  1  0
  2  3  2  0
  3  4  1  0
  4  5  2  0
  5  6  1  0
  6  7  1  0
  7  8  1  0
  8  9  2  0
  9 10  1  0
  9 11  1  0
 11 12  2  0
 12 13  1  0
  5 14  1  0
 14 15  2  0
 15  2  1  0
 12  7  1  0
  3 16  1  0
  4 17  1  0
  6 18  1  0
  6 19  1  0
 14 20  1  0
 15 21  1  0
M  END
