
     RDKit          3D

 19 19  0  0  0  0  0  0  0  0999 V2000
    3.2493   -0.8077    0.4822 N   0  0  0  0  0  0  0  0  0  0  0  0
    1.9614   -0.2967    0.2214 C   0  0  0  0  0  0  0  0  0  0  0  0
    1.1827    0.2593    1.2562 C   0  0  0  0  0  0  0  0  0  0  0  0
    1.9172    0.5386    2.9890 Br  0  0  0  0  0  0  0  0  0  0  0  0
   -0.1448    0.6414    1.0459 C   0  0  0  0  0  0  0  0  0  0  0  0
   -0.7242    0.4286   -0.2047 C   0  0  0  0  0  0  0  0  0  0  0  0
   -2.4032    0.9138   -0.4940 S   0  0  0  0  0  0  0  0  0  0  0  0
   -3.2244   -0.5293   -0.2295 N   0  0  0  0  0  0  0  0  0  0  0  0
   -2.8104    1.7984    0.5724 O   0  0  0  0  0  0  0  0  0  0  0  0
   -2.5372    1.2598   -1.8879 O   0  0  0  0  0  0  0  0  0  0  0  0
    0.0075   -0.1456   -1.2449 C   0  0  0  0  0  0  0  0  0  0  0  0
    1.3337   -0.5226   -1.0199 C   0  0  0  0  0  0  0  0  0  0  0  0
    2.2777   -1.3326   -2.4592 Br  0  0  0  0  0  0  0  0  0  0  0  0
    3.7233   -0.3431    1.2533 H   0  0  0  0  0  0  0  0  0  0  0  0
    3.8287   -0.8948   -0.3496 H   0  0  0  0  0  0  0  0  0  0  0  0
   -0.7199    1.0951    1.8508 H   0  0  0  0  0  0  0  0  0  0  0  0
   -3.8460   -0.4189    0.5740 H   0  0  0  0  0  0  0  0  0  0  0  0
   -2.6186   -1.3433   -0.1360 H   0  0  0  0  0  0  0  0  0  0  0  0
   -0.4528   -0.3005   -2.2194 H   0  0  0  0  0  0  0  0  0  0  0  0
  1  2  1  0
  2  3  2  0
  3  4  1  0
  3  5  1  0
  5  6  2  0
  6  7  1  0
  7  8  1  0
  7  9  2  0
  7 10  2  0
  6 11  1  0
 11 12  2  0
 12 13  1  0
 12  2  1  0
  1 14  1  0
  1 15  1  0
  5 16  1  0
  8 17  1  0
  8 18  1  0
 11 19  1  0
M  END
