
     RDKit          3D

 13 13  0  0  0  0  0  0  0  0999 V2000
    3.6430   -0.7441    0.1217 N   0  0  0  0  0  0  0  0  0  0  0  0
    2.5069   -0.5121    0.0837 C   0  0  0  0  0  0  0  0  0  0  0  0
    1.1033   -0.2254    0.0368 C   0  0  0  0  0  0  0  0  0  0  0  0
    0.6628    1.0953   -0.1023 C   0  0  0  0  0  0  0  0  0  0  0  0
   -0.7051    1.3655   -0.1471 C   0  0  0  0  0  0  0  0  0  0  0  0
   -1.2989    3.1505   -0.3351 Br  0  0  0  0  0  0  0  0  0  0  0  0
   -1.6383    0.3347   -0.0547 C   0  0  0  0  0  0  0  0  0  0  0  0
   -1.1915   -0.9781    0.0837 C   0  0  0  0  0  0  0  0  0  0  0  0
   -2.4478   -2.3852    0.2100 Br  0  0  0  0  0  0  0  0  0  0  0  0
    0.1728   -1.2660    0.1302 C   0  0  0  0  0  0  0  0  0  0  0  0
    1.3840    1.9076   -0.1752 H   0  0  0  0  0  0  0  0  0  0  0  0
   -2.7029    0.5521   -0.0903 H   0  0  0  0  0  0  0  0  0  0  0  0
    0.5118   -2.2948    0.2386 H   0  0  0  0  0  0  0  0  0  0  0  0
  1  2  3  0
  2  3  1  0
  3  4  2  0
  4  5  1  0
  5  6  1  0
  5  7  2  0
  7  8  1  0
  8  9  1  0
  8 10  2  0
 10  3  1  0
  4 11  1  0
  7 12  1  0
 10 13  1  0
M  END
