
     RDKit          3D

 25 26  0  0  0  0  0  0  0  0999 V2000
   -5.1237   -1.3835    0.3986 F   0  0  0  0  0  0  0  0  0  0  0  0
   -3.9999   -0.6994    0.1496 C   0  0  0  0  0  0  0  0  0  0  0  0
   -2.7883   -1.3754    0.0722 C   0  0  0  0  0  0  0  0  0  0  0  0
   -1.6107   -0.6664   -0.1870 C   0  0  0  0  0  0  0  0  0  0  0  0
   -1.6540    0.7186   -0.3684 C   0  0  0  0  0  0  0  0  0  0  0  0
   -0.5894    1.5384   -0.6200 O   0  0  0  0  0  0  0  0  0  0  0  0
    0.7029    0.9518   -0.7814 C   0  0  0  0  0  0  0  0  0  0  0  0
    1.3942    0.7942    0.5659 C   0  0  0  0  0  0  0  0  0  0  0  0
    2.7060    0.2111    0.4245 N   0  0  0  0  0  0  0  0  0  0  0  0
    2.8371   -1.1258    0.3235 N   0  0  0  0  0  0  0  0  0  0  0  0
    4.1638   -1.2509    0.2047 C   0  0  0  0  0  0  0  0  0  0  0  0
    5.0069   -2.9274    0.0291 Br  0  0  0  0  0  0  0  0  0  0  0  0
    4.8597   -0.0738    0.2085 N   0  0  0  0  0  0  0  0  0  0  0  0
    3.9185    0.8313    0.3470 C   0  0  0  0  0  0  0  0  0  0  0  0
    4.2622    2.7035    0.3993 Br  0  0  0  0  0  0  0  0  0  0  0  0
   -2.8838    1.3830   -0.2848 C   0  0  0  0  0  0  0  0  0  0  0  0
   -4.0591    0.6759   -0.0265 C   0  0  0  0  0  0  0  0  0  0  0  0
   -2.7660   -2.4516    0.2143 H   0  0  0  0  0  0  0  0  0  0  0  0
   -0.6856   -1.2317   -0.2358 H   0  0  0  0  0  0  0  0  0  0  0  0
    1.2813    1.6517   -1.3972 H   0  0  0  0  0  0  0  0  0  0  0  0
    0.6670    0.0231   -1.3634 H   0  0  0  0  0  0  0  0  0  0  0  0
    1.4830    1.7611    1.0720 H   0  0  0  0  0  0  0  0  0  0  0  0
    0.8176    0.1540    1.2428 H   0  0  0  0  0  0  0  0  0  0  0  0
   -2.9262    2.4608   -0.4245 H   0  0  0  0  0  0  0  0  0  0  0  0
   -5.0134    1.1882    0.0369 H   0  0  0  0  0  0  0  0  0  0  0  0
  1  2  1  0
  2  3  2  0
  3  4  1  0
  4  5  2  0
  5  6  1  0
  6  7  1  0
  7  8  1  0
  8  9  1  0
  9 10  1  0
 10 11  2  0
 11 12  1  0
 11 13  1  0
 13 14  2  0
 14 15  1  0
  5 16  1  0
 16 17  2  0
 17  2  1  0
 14  9  1  0
  3 18  1  0
  4 19  1  0
  7 20  1  0
  7 21  1  0
  8 22  1  0
  8 23  1  0
 16 24  1  0
 17 25  1  0
M  END
