
     RDKit          3D

 16 16  0  0  0  0  0  0  0  0999 V2000
    2.6838   -0.2270   -0.7765 O   0  0  0  0  0  0  0  0  0  0  0  0
    1.9992   -0.2272    0.4682 C   0  0  0  0  0  0  0  0  0  0  0  0
    0.5199   -0.0449    0.2553 C   0  0  0  0  0  0  0  0  0  0  0  0
   -0.1342   -0.6298   -0.8402 C   0  0  0  0  0  0  0  0  0  0  0  0
   -1.5124   -0.4803   -1.0031 C   0  0  0  0  0  0  0  0  0  0  0  0
   -2.3700   -1.2699   -2.4922 Br  0  0  0  0  0  0  0  0  0  0  0  0
   -2.2632    0.2409   -0.0787 C   0  0  0  0  0  0  0  0  0  0  0  0
   -1.6210    0.8118    1.0169 C   0  0  0  0  0  0  0  0  0  0  0  0
   -2.6273    1.7868    2.2874 Br  0  0  0  0  0  0  0  0  0  0  0  0
   -0.2426    0.6699    1.1915 C   0  0  0  0  0  0  0  0  0  0  0  0
    3.6302   -0.3175   -0.5755 H   0  0  0  0  0  0  0  0  0  0  0  0
    2.1833   -1.1794    0.9762 H   0  0  0  0  0  0  0  0  0  0  0  0
    2.4060    0.5888    1.0745 H   0  0  0  0  0  0  0  0  0  0  0  0
    0.4427   -1.1957   -1.5697 H   0  0  0  0  0  0  0  0  0  0  0  0
   -3.3354    0.3544   -0.2097 H   0  0  0  0  0  0  0  0  0  0  0  0
    0.2409    1.1191    2.0563 H   0  0  0  0  0  0  0  0  0  0  0  0
  1  2  1  0
  2  3  1  0
  3  4  2  0
  4  5  1  0
  5  6  1  0
  5  7  2  0
  7  8  1  0
  8  9  1  0
  8 10  2  0
 10  3  1  0
  1 11  1  0
  2 12  1  0
  2 13  1  0
  4 14  1  0
  7 15  1  0
 10 16  1  0
M  END
