
     RDKit          3D

 16 16  0  0  0  0  0  0  0  0999 V2000
   -2.4356    0.0476    0.2193 C   0  0  0  0  0  0  0  0  0  0  0  0
   -0.9471   -0.0060   -0.0092 C   0  0  0  0  0  0  0  0  0  0  0  0
   -0.1295    1.1210    0.2181 C   0  0  0  0  0  0  0  0  0  0  0  0
   -0.8267    2.7846    0.8306 Br  0  0  0  0  0  0  0  0  0  0  0  0
    1.2567    1.0686    0.0207 C   0  0  0  0  0  0  0  0  0  0  0  0
    1.8447   -0.1189   -0.3880 C   0  0  0  0  0  0  0  0  0  0  0  0
    3.1889   -0.2167   -0.5916 O   0  0  0  0  0  0  0  0  0  0  0  0
    1.0761   -1.2544   -0.5907 C   0  0  0  0  0  0  0  0  0  0  0  0
   -0.3083   -1.2030   -0.3937 C   0  0  0  0  0  0  0  0  0  0  0  0
   -1.2559   -2.8347   -0.6492 Br  0  0  0  0  0  0  0  0  0  0  0  0
   -2.9783   -0.6330   -0.4427 H   0  0  0  0  0  0  0  0  0  0  0  0
   -2.6638   -0.2089    1.2584 H   0  0  0  0  0  0  0  0  0  0  0  0
   -2.8508    1.0345   -0.0031 H   0  0  0  0  0  0  0  0  0  0  0  0
    1.8642    1.9517    0.1951 H   0  0  0  0  0  0  0  0  0  0  0  0
    3.6025    0.6450   -0.4162 H   0  0  0  0  0  0  0  0  0  0  0  0
    1.5630   -2.1775   -0.8948 H   0  0  0  0  0  0  0  0  0  0  0  0
  1  2  1  0
  2  3  2  0
  3  4  1  0
  3  5  1  0
  5  6  2  0
  6  7  1  0
  6  8  1  0
  8  9  2  0
  9 10  1  0
  9  2  1  0
  1 11  1  0
  1 12  1  0
  1 13  1  0
  5 14  1  0
  7 15  1  0
  8 16  1  0
M  END
