
     RDKit          3D

 17 17  0  0  0  0  0  0  0  0999 V2000
   -1.7446   -1.1920    0.3972 C   0  0  0  0  0  0  0  0  0  0  0  0
   -1.6310    0.2408   -0.1035 C   0  0  0  0  0  0  0  0  0  0  0  0
   -0.4196    0.4668   -1.0077 C   0  0  0  0  0  0  0  0  0  0  0  0
    0.8486    0.3528   -0.3222 N   0  0  0  0  0  0  0  0  0  0  0  0
    1.5574   -0.7907   -0.3925 N   0  0  0  0  0  0  0  0  0  0  0  0
    2.6319   -0.4795    0.3401 C   0  0  0  0  0  0  0  0  0  0  0  0
    4.0351   -1.7019    0.6409 Br  0  0  0  0  0  0  0  0  0  0  0  0
    2.6396    0.7885    0.8522 N   0  0  0  0  0  0  0  0  0  0  0  0
    1.5084    1.2929    0.4160 C   0  0  0  0  0  0  0  0  0  0  0  0
    0.9365    3.0696    0.7967 Br  0  0  0  0  0  0  0  0  0  0  0  0
   -1.7664   -1.8997   -0.4376 H   0  0  0  0  0  0  0  0  0  0  0  0
   -2.6684   -1.3171    0.9712 H   0  0  0  0  0  0  0  0  0  0  0  0
   -0.9083   -1.4542    1.0521 H   0  0  0  0  0  0  0  0  0  0  0  0
   -1.6010    0.9193    0.7566 H   0  0  0  0  0  0  0  0  0  0  0  0
   -2.5377    0.4832   -0.6702 H   0  0  0  0  0  0  0  0  0  0  0  0
   -0.4178   -0.2474   -1.8397 H   0  0  0  0  0  0  0  0  0  0  0  0
   -0.4627    1.4684   -1.4497 H   0  0  0  0  0  0  0  0  0  0  0  0
  1  2  1  0
  2  3  1  0
  3  4  1  0
  4  5  1  0
  5  6  2  0
  6  7  1  0
  6  8  1  0
  8  9  2  0
  9 10  1  0
  9  4  1  0
  1 11  1  0
  1 12  1  0
  1 13  1  0
  2 14  1  0
  2 15  1  0
  3 16  1  0
  3 17  1  0
M  END
