
     RDKit          3D

 24 24  0  0  0  0  0  0  0  0999 V2000
   -3.7779    0.2975    0.8769 C   0  0  0  0  0  0  0  0  0  0  0  0
   -2.7620   -0.2651   -0.1007 C   0  0  0  0  0  0  0  0  0  0  0  0
   -1.3559    0.2538    0.1802 C   0  0  0  0  0  0  0  0  0  0  0  0
   -0.4726   -0.3249   -0.7924 O   0  0  0  0  0  0  0  0  0  0  0  0
    0.8336   -0.0164   -0.5191 C   0  0  0  0  0  0  0  0  0  0  0  0
    1.4246    1.0911   -1.1476 C   0  0  0  0  0  0  0  0  0  0  0  0
    0.4503    2.2052   -2.3396 Br  0  0  0  0  0  0  0  0  0  0  0  0
    2.7696    1.3989   -0.9290 C   0  0  0  0  0  0  0  0  0  0  0  0
    3.5339    0.5835   -0.0998 C   0  0  0  0  0  0  0  0  0  0  0  0
    5.3556    0.9938    0.1957 Br  0  0  0  0  0  0  0  0  0  0  0  0
    2.9742   -0.5403    0.5054 C   0  0  0  0  0  0  0  0  0  0  0  0
    1.6227   -0.8483    0.2911 C   0  0  0  0  0  0  0  0  0  0  0  0
    1.1126   -2.0796    0.9454 C   0  0  0  0  0  0  0  0  0  0  0  0
   -0.0641   -2.4080    0.9881 O   0  0  0  0  0  0  0  0  0  0  0  0
   -4.7763   -0.0905    0.6518 H   0  0  0  0  0  0  0  0  0  0  0  0
   -3.8165    1.3898    0.8172 H   0  0  0  0  0  0  0  0  0  0  0  0
   -3.5288    0.0179    1.9055 H   0  0  0  0  0  0  0  0  0  0  0  0
   -2.7661   -1.3606   -0.0521 H   0  0  0  0  0  0  0  0  0  0  0  0
   -3.0504   -0.0072   -1.1268 H   0  0  0  0  0  0  0  0  0  0  0  0
   -1.0541   -0.0173    1.1991 H   0  0  0  0  0  0  0  0  0  0  0  0
   -1.3412    1.3468    0.0940 H   0  0  0  0  0  0  0  0  0  0  0  0
    3.2197    2.2626   -1.4128 H   0  0  0  0  0  0  0  0  0  0  0  0
    3.5922   -1.1734    1.1383 H   0  0  0  0  0  0  0  0  0  0  0  0
    1.8768   -2.7093    1.4325 H   0  0  0  0  0  0  0  0  0  0  0  0
  1  2  1  0
  2  3  1  0
  3  4  1  0
  4  5  1  0
  5  6  2  0
  6  7  1  0
  6  8  1  0
  8  9  2  0
  9 10  1  0
  9 11  1  0
 11 12  2  0
 12 13  1  0
 13 14  2  0
 12  5  1  0
  1 15  1  0
  1 16  1  0
  1 17  1  0
  2 18  1  0
  2 19  1  0
  3 20  1  0
  3 21  1  0
  8 22  1  0
 11 23  1  0
 13 24  1  0
M  END
