
     RDKit          3D

 13 13  0  0  0  0  0  0  0  0999 V2000
    2.4296    0.5420   -0.4589 C   0  0  0  0  0  0  0  0  0  0  0  0
    1.5729   -0.4639    0.0643 O   0  0  0  0  0  0  0  0  0  0  0  0
    0.2495   -0.2323    0.0806 C   0  0  0  0  0  0  0  0  0  0  0  0
   -0.5171    1.2071   -0.4890 S   0  0  0  0  0  0  0  0  0  0  0  0
   -2.0582    0.6318   -0.0951 C   0  0  0  0  0  0  0  0  0  0  0  0
   -3.6560    1.6362   -0.3970 Br  0  0  0  0  0  0  0  0  0  0  0  0
   -2.0477   -0.6200    0.4592 C   0  0  0  0  0  0  0  0  0  0  0  0
   -0.7168   -1.1019    0.5533 C   0  0  0  0  0  0  0  0  0  0  0  0
   -0.3628   -2.8139    1.2809 Br  0  0  0  0  0  0  0  0  0  0  0  0
    3.4580    0.1746   -0.3885 H   0  0  0  0  0  0  0  0  0  0  0  0
    2.3651    1.4630    0.1297 H   0  0  0  0  0  0  0  0  0  0  0  0
    2.2170    0.7330   -1.5160 H   0  0  0  0  0  0  0  0  0  0  0  0
   -2.9336   -1.1555    0.7764 H   0  0  0  0  0  0  0  0  0  0  0  0
  1  2  1  0
  2  3  1  0
  3  4  1  0
  4  5  1  0
  5  6  1  0
  5  7  2  0
  7  8  1  0
  8  9  1  0
  8  3  2  0
  1 10  1  0
  1 11  1  0
  1 12  1  0
  7 13  1  0
M  END
