
     RDKit          3D

 20 21  0  0  0  0  0  0  0  0999 V2000
    3.5280   -1.5106    2.5700 Br  0  0  0  0  0  0  0  0  0  0  0  0
    2.5358   -1.1569    1.0068 C   0  0  0  0  0  0  0  0  0  0  0  0
    2.2075   -2.1333    0.1091 N   0  0  0  0  0  0  0  0  0  0  0  0
    1.5389   -1.4792   -0.8133 C   0  0  0  0  0  0  0  0  0  0  0  0
    0.8552   -2.3120   -2.3853 Br  0  0  0  0  0  0  0  0  0  0  0  0
    1.4455   -0.1623   -0.4582 N   0  0  0  0  0  0  0  0  0  0  0  0
    0.8311    0.9304   -1.1816 C   0  0  0  0  0  0  0  0  0  0  0  0
   -0.6468    1.1191   -0.8483 C   0  0  0  0  0  0  0  0  0  0  0  0
   -0.8518    1.5229    0.5095 O   0  0  0  0  0  0  0  0  0  0  0  0
   -2.0648    0.8743    0.8867 C   0  0  0  0  0  0  0  0  0  0  0  0
   -2.0157   -0.4170    0.1149 C   0  0  0  0  0  0  0  0  0  0  0  0
   -1.4250   -0.0509   -1.1359 O   0  0  0  0  0  0  0  0  0  0  0  0
    2.1127    0.0706    0.6913 N   0  0  0  0  0  0  0  0  0  0  0  0
    1.3968    1.8369   -0.9375 H   0  0  0  0  0  0  0  0  0  0  0  0
    0.9607    0.7254   -2.2492 H   0  0  0  0  0  0  0  0  0  0  0  0
   -1.0392    1.9221   -1.4838 H   0  0  0  0  0  0  0  0  0  0  0  0
   -2.1098    0.7318    1.9692 H   0  0  0  0  0  0  0  0  0  0  0  0
   -2.9029    1.5033    0.5673 H   0  0  0  0  0  0  0  0  0  0  0  0
   -1.3573   -1.1463    0.5984 H   0  0  0  0  0  0  0  0  0  0  0  0
   -2.9988   -0.8682   -0.0402 H   0  0  0  0  0  0  0  0  0  0  0  0
  1  2  1  0
  2  3  1  0
  3  4  2  0
  4  5  1  0
  4  6  1  0
  6  7  1  0
  7  8  1  0
  8  9  1  0
  9 10  1  0
 10 11  1  0
 11 12  1  0
  6 13  1  0
 13  2  2  0
 12  8  1  0
  7 14  1  0
  7 15  1  0
  8 16  1  0
 10 17  1  0
 10 18  1  0
 11 19  1  0
 11 20  1  0
M  END
