
     RDKit          3D

 19 19  0  0  0  0  0  0  0  0999 V2000
    3.4076    0.2104    0.3686 C   0  0  0  0  0  0  0  0  0  0  0  0
    2.4471   -0.8314    0.2433 O   0  0  0  0  0  0  0  0  0  0  0  0
    1.1322   -0.4622    0.1860 C   0  0  0  0  0  0  0  0  0  0  0  0
    0.6428    0.8390    0.2127 C   0  0  0  0  0  0  0  0  0  0  0  0
   -0.7390    1.0770    0.1461 C   0  0  0  0  0  0  0  0  0  0  0  0
   -1.2752    2.9060    0.1384 Br  0  0  0  0  0  0  0  0  0  0  0  0
   -1.6662    0.0192    0.0703 C   0  0  0  0  0  0  0  0  0  0  0  0
   -3.1472    0.2805   -0.0171 C   0  0  0  0  0  0  0  0  0  0  0  0
   -1.1462   -1.2871    0.0116 C   0  0  0  0  0  0  0  0  0  0  0  0
   -2.2515   -2.8247   -0.1860 Br  0  0  0  0  0  0  0  0  0  0  0  0
    0.2330   -1.5204    0.0785 C   0  0  0  0  0  0  0  0  0  0  0  0
    3.3883    0.8708   -0.5045 H   0  0  0  0  0  0  0  0  0  0  0  0
    3.2596    0.7745    1.2954 H   0  0  0  0  0  0  0  0  0  0  0  0
    4.3982   -0.2521    0.4146 H   0  0  0  0  0  0  0  0  0  0  0  0
    1.3163    1.6876    0.2772 H   0  0  0  0  0  0  0  0  0  0  0  0
   -3.4413    1.1653    0.5548 H   0  0  0  0  0  0  0  0  0  0  0  0
   -3.7372   -0.5327    0.4144 H   0  0  0  0  0  0  0  0  0  0  0  0
   -3.4420    0.4167   -1.0623 H   0  0  0  0  0  0  0  0  0  0  0  0
    0.6207   -2.5365    0.0405 H   0  0  0  0  0  0  0  0  0  0  0  0
  1  2  1  0
  2  3  1  0
  3  4  2  0
  4  5  1  0
  5  6  1  0
  5  7  2  0
  7  8  1  0
  7  9  1  0
  9 10  1  0
  9 11  2  0
 11  3  1  0
  1 12  1  0
  1 13  1  0
  1 14  1  0
  4 15  1  0
  8 16  1  0
  8 17  1  0
  8 18  1  0
 11 19  1  0
M  END
