
     RDKit          3D

 13 13  0  0  0  0  0  0  0  0999 V2000
   -1.6625   -1.5415   -1.1729 O   0  0  0  0  0  0  0  0  0  0  0  0
   -0.7719   -0.7124   -0.5567 C   0  0  0  0  0  0  0  0  0  0  0  0
   -0.5210   -0.8052    0.8090 C   0  0  0  0  0  0  0  0  0  0  0  0
    0.4002    0.0685    1.3880 C   0  0  0  0  0  0  0  0  0  0  0  0
    0.7537   -0.0432    3.2429 Br  0  0  0  0  0  0  0  0  0  0  0  0
    1.0635    1.0227    0.6168 C   0  0  0  0  0  0  0  0  0  0  0  0
    0.7967    1.0977   -0.7496 C   0  0  0  0  0  0  0  0  0  0  0  0
    1.6885    2.3864   -1.8075 Br  0  0  0  0  0  0  0  0  0  0  0  0
   -0.1206    0.2324   -1.3428 C   0  0  0  0  0  0  0  0  0  0  0  0
   -2.0428   -2.1475   -0.5153 H   0  0  0  0  0  0  0  0  0  0  0  0
   -1.0303   -1.5431    1.4205 H   0  0  0  0  0  0  0  0  0  0  0  0
    1.7796    1.6996    1.0747 H   0  0  0  0  0  0  0  0  0  0  0  0
   -0.3331    0.2856   -2.4069 H   0  0  0  0  0  0  0  0  0  0  0  0
  1  2  1  0
  2  3  2  0
  3  4  1  0
  4  5  1  0
  4  6  2  0
  6  7  1  0
  7  8  1  0
  7  9  2  0
  9  2  1  0
  1 10  1  0
  3 11  1  0
  6 12  1  0
  9 13  1  0
M  END
