
     RDKit          3D

 18 18  0  0  0  0  0  0  0  0999 V2000
   -0.2453    2.0872    0.5770 C   0  0  0  0  0  0  0  0  0  0  0  0
    0.2319    0.7029    0.2245 C   0  0  0  0  0  0  0  0  0  0  0  0
    1.6124    0.4406    0.2815 C   0  0  0  0  0  0  0  0  0  0  0  0
    2.1091   -0.8211   -0.0338 C   0  0  0  0  0  0  0  0  0  0  0  0
    3.9698   -1.1455    0.0514 Br  0  0  0  0  0  0  0  0  0  0  0  0
    1.2476   -1.8425   -0.4104 C   0  0  0  0  0  0  0  0  0  0  0  0
   -0.1267   -1.5972   -0.4717 C   0  0  0  0  0  0  0  0  0  0  0  0
   -1.2325   -3.0555   -0.9975 Br  0  0  0  0  0  0  0  0  0  0  0  0
   -0.6594   -0.3279   -0.1576 C   0  0  0  0  0  0  0  0  0  0  0  0
   -2.1476   -0.0910   -0.2323 C   0  0  0  0  0  0  0  0  0  0  0  0
    0.5878    2.7455    0.8463 H   0  0  0  0  0  0  0  0  0  0  0  0
   -0.9209    2.0488    1.4374 H   0  0  0  0  0  0  0  0  0  0  0  0
   -0.7563    2.5422   -0.2774 H   0  0  0  0  0  0  0  0  0  0  0  0
    2.3027    1.2294    0.5747 H   0  0  0  0  0  0  0  0  0  0  0  0
    1.6417   -2.8251   -0.6553 H   0  0  0  0  0  0  0  0  0  0  0  0
   -2.6720   -0.7564    0.4614 H   0  0  0  0  0  0  0  0  0  0  0  0
   -2.5076   -0.2634   -1.2520 H   0  0  0  0  0  0  0  0  0  0  0  0
   -2.4348    0.9290    0.0337 H   0  0  0  0  0  0  0  0  0  0  0  0
  1  2  1  0
  2  3  2  0
  3  4  1  0
  4  5  1  0
  4  6  2  0
  6  7  1  0
  7  8  1  0
  7  9  2  0
  9 10  1  0
  9  2  1  0
  1 11  1  0
  1 12  1  0
  1 13  1  0
  3 14  1  0
  6 15  1  0
 10 16  1  0
 10 17  1  0
 10 18  1  0
M  END
