
     RDKit          3D

 17 17  0  0  0  0  0  0  0  0999 V2000
    2.7502    0.1863    0.0131 C   0  0  0  0  0  0  0  0  0  0  0  0
    1.2519    0.0831    0.0318 C   0  0  0  0  0  0  0  0  0  0  0  0
    0.6279   -1.1688   -0.0685 C   0  0  0  0  0  0  0  0  0  0  0  0
   -0.7673   -1.2699   -0.0829 C   0  0  0  0  0  0  0  0  0  0  0  0
   -1.5165   -3.0101   -0.2108 Br  0  0  0  0  0  0  0  0  0  0  0  0
   -1.5331   -0.1039   -0.0067 C   0  0  0  0  0  0  0  0  0  0  0  0
   -2.9684   -0.2006   -0.0212 N   0  0  0  0  0  4  0  0  0  0  0  0
   -3.5214   -0.1643   -1.1281 O   0  0  0  0  0  0  0  0  0  0  0  0
   -3.5335   -0.3123    1.0744 O   0  0  0  0  0  1  0  0  0  0  0  0
   -0.9323    1.1545    0.0789 C   0  0  0  0  0  0  0  0  0  0  0  0
   -1.9106    2.7792    0.1757 Br  0  0  0  0  0  0  0  0  0  0  0  0
    0.4638    1.2415    0.0924 C   0  0  0  0  0  0  0  0  0  0  0  0
    3.2081   -0.6985    0.4677 H   0  0  0  0  0  0  0  0  0  0  0  0
    3.0886    1.0568    0.5849 H   0  0  0  0  0  0  0  0  0  0  0  0
    3.1052    0.2793   -1.0177 H   0  0  0  0  0  0  0  0  0  0  0  0
    1.2394   -2.0681   -0.1345 H   0  0  0  0  0  0  0  0  0  0  0  0
    0.9479    2.2158    0.1514 H   0  0  0  0  0  0  0  0  0  0  0  0
  1  2  1  0
  2  3  2  0
  3  4  1  0
  4  5  1  0
  4  6  2  0
  6  7  1  0
  7  8  2  0
  7  9  1  0
  6 10  1  0
 10 11  1  0
 10 12  2  0
 12  2  1  0
  1 13  1  0
  1 14  1  0
  1 15  1  0
  3 16  1  0
 12 17  1  0
M  CHG  2   7   1   9  -1
M  END
