
     RDKit          3D

 22 22  0  0  0  0  0  0  0  0999 V2000
    3.9071    0.3482    0.2398 C   0  0  0  0  0  0  0  0  0  0  0  0
    3.1328    0.2186   -0.9548 O   0  0  0  0  0  0  0  0  0  0  0  0
    1.7968    0.1171   -0.6584 C   0  0  0  0  0  0  0  0  0  0  0  0
    1.2035   -1.1417   -0.4936 C   0  0  0  0  0  0  0  0  0  0  0  0
    2.2017   -2.7492   -0.6629 Br  0  0  0  0  0  0  0  0  0  0  0  0
   -0.1628   -1.2507   -0.2176 C   0  0  0  0  0  0  0  0  0  0  0  0
   -0.9517   -0.0988   -0.1238 C   0  0  0  0  0  0  0  0  0  0  0  0
   -2.4140   -0.2057    0.1730 C   0  0  0  0  0  0  0  0  0  0  0  0
   -2.9153   -1.3761    0.6936 N   0  0  0  0  0  0  0  0  0  0  0  0
   -3.1774    0.8235   -0.0643 N   0  0  0  0  0  0  0  0  0  0  0  0
   -4.5090    0.5546    0.2959 O   0  0  0  0  0  0  0  0  0  0  0  0
   -0.3725    1.1582   -0.3333 C   0  0  0  0  0  0  0  0  0  0  0  0
    0.9934    1.2639   -0.6094 C   0  0  0  0  0  0  0  0  0  0  0  0
    1.6995    2.9967   -0.9356 Br  0  0  0  0  0  0  0  0  0  0  0  0
    3.8001   -0.5296    0.8854 H   0  0  0  0  0  0  0  0  0  0  0  0
    4.9587    0.4269   -0.0517 H   0  0  0  0  0  0  0  0  0  0  0  0
    3.6417    1.2531    0.7959 H   0  0  0  0  0  0  0  0  0  0  0  0
   -0.6145   -2.2333   -0.1085 H   0  0  0  0  0  0  0  0  0  0  0  0
   -2.3777   -1.7684    1.4574 H   0  0  0  0  0  0  0  0  0  0  0  0
   -3.8838   -1.2211    0.9701 H   0  0  0  0  0  0  0  0  0  0  0  0
   -4.9669    1.3605   -0.0084 H   0  0  0  0  0  0  0  0  0  0  0  0
   -0.9895    2.0532   -0.2885 H   0  0  0  0  0  0  0  0  0  0  0  0
  1  2  1  0
  2  3  1  0
  3  4  2  0
  4  5  1  0
  4  6  1  0
  6  7  2  0
  7  8  1  0
  8  9  1  0
  8 10  2  0
 10 11  1  0
  7 12  1  0
 12 13  2  0
 13 14  1  0
 13  3  1  0
  1 15  1  0
  1 16  1  0
  1 17  1  0
  6 18  1  0
  9 19  1  0
  9 20  1  0
 11 21  1  0
 12 22  1  0
M  END
