
     RDKit          3D

 15 15  0  0  0  0  0  0  0  0999 V2000
   -2.6799   -0.6712   -1.2470 F   0  0  0  0  0  0  0  0  0  0  0  0
   -2.1347   -0.7269   -0.0018 C   0  0  0  0  0  0  0  0  0  0  0  0
   -2.9550    0.0048    0.8017 F   0  0  0  0  0  0  0  0  0  0  0  0
   -2.2658   -2.0182    0.4095 F   0  0  0  0  0  0  0  0  0  0  0  0
   -0.7058   -0.2438    0.0172 C   0  0  0  0  0  0  0  0  0  0  0  0
    0.3526   -1.1380   -0.2111 C   0  0  0  0  0  0  0  0  0  0  0  0
    1.6709   -0.6796   -0.2139 C   0  0  0  0  0  0  0  0  0  0  0  0
    3.0831   -1.8995   -0.5169 Br  0  0  0  0  0  0  0  0  0  0  0  0
    1.9568    0.6662    0.0021 C   0  0  0  0  0  0  0  0  0  0  0  0
    0.9088    1.5574    0.2198 C   0  0  0  0  0  0  0  0  0  0  0  0
    1.2817    3.3882    0.5082 Br  0  0  0  0  0  0  0  0  0  0  0  0
   -0.4146    1.1141    0.2255 C   0  0  0  0  0  0  0  0  0  0  0  0
    0.1423   -2.1928   -0.3849 H   0  0  0  0  0  0  0  0  0  0  0  0
    2.9853    1.0174   -0.0016 H   0  0  0  0  0  0  0  0  0  0  0  0
   -1.2255    1.8221    0.3934 H   0  0  0  0  0  0  0  0  0  0  0  0
  1  2  1  0
  2  3  1  0
  2  4  1  0
  2  5  1  0
  5  6  2  0
  6  7  1  0
  7  8  1  0
  7  9  2  0
  9 10  1  0
 10 11  1  0
 10 12  2  0
 12  5  1  0
  6 13  1  0
  9 14  1  0
 12 15  1  0
M  END
