
     RDKit          3D

 16 16  0  0  0  0  0  0  0  0999 V2000
   -2.7707   -0.1786    0.7948 O   0  0  0  0  0  0  0  0  0  0  0  0
   -2.0592   -0.4765   -0.3974 C   0  0  0  0  0  0  0  0  0  0  0  0
   -0.5946   -0.1731   -0.2323 C   0  0  0  0  0  0  0  0  0  0  0  0
    0.3025   -1.1768    0.1594 C   0  0  0  0  0  0  0  0  0  0  0  0
    1.6550   -0.8783    0.3351 C   0  0  0  0  0  0  0  0  0  0  0  0
    2.8530   -2.2454    0.8566 Br  0  0  0  0  0  0  0  0  0  0  0  0
    2.1309    0.4151    0.1340 C   0  0  0  0  0  0  0  0  0  0  0  0
    1.2382    1.4156   -0.2428 C   0  0  0  0  0  0  0  0  0  0  0  0
    1.8668    3.1788   -0.5096 Br  0  0  0  0  0  0  0  0  0  0  0  0
   -0.1167    1.1318   -0.4221 C   0  0  0  0  0  0  0  0  0  0  0  0
   -2.1263    0.0357    1.4905 H   0  0  0  0  0  0  0  0  0  0  0  0
   -2.2140   -1.5333   -0.6393 H   0  0  0  0  0  0  0  0  0  0  0  0
   -2.4865    0.1104   -1.2172 H   0  0  0  0  0  0  0  0  0  0  0  0
   -0.0565   -2.1907    0.3267 H   0  0  0  0  0  0  0  0  0  0  0  0
    3.1844    0.6416    0.2725 H   0  0  0  0  0  0  0  0  0  0  0  0
   -0.8064    1.9238   -0.7090 H   0  0  0  0  0  0  0  0  0  0  0  0
  1  2  1  0
  2  3  1  0
  3  4  2  0
  4  5  1  0
  5  6  1  0
  5  7  2  0
  7  8  1  0
  8  9  1  0
  8 10  2  0
 10  3  1  0
  1 11  1  0
  2 12  1  0
  2 13  1  0
  4 14  1  0
  7 15  1  0
 10 16  1  0
M  END
