
     RDKit          3D

 21 22  0  0  0  0  0  0  0  0999 V2000
    4.0863   -0.5084    1.6788 F   0  0  0  0  0  0  0  0  0  0  0  0
    2.9639   -0.4060    0.9558 C   0  0  0  0  0  0  0  0  0  0  0  0
    2.5064    0.8530    0.5790 C   0  0  0  0  0  0  0  0  0  0  0  0
    1.3375    0.9695   -0.1770 C   0  0  0  0  0  0  0  0  0  0  0  0
    0.6261   -0.1801   -0.5562 C   0  0  0  0  0  0  0  0  0  0  0  0
   -0.6509   -0.0892   -1.3493 C   0  0  0  0  0  0  0  0  0  0  0  0
   -1.7886    0.2035   -0.4971 N   0  0  0  0  0  0  0  0  0  0  0  0
   -2.3911   -0.7810    0.2027 N   0  0  0  0  0  0  0  0  0  0  0  0
   -3.3681   -0.1096    0.8196 C   0  0  0  0  0  0  0  0  0  0  0  0
   -4.5834   -0.9473    1.9918 Br  0  0  0  0  0  0  0  0  0  0  0  0
   -3.4269    1.2253    0.5310 N   0  0  0  0  0  0  0  0  0  0  0  0
   -2.4285    1.3954   -0.3049 C   0  0  0  0  0  0  0  0  0  0  0  0
   -2.0075    3.0812   -1.0875 Br  0  0  0  0  0  0  0  0  0  0  0  0
    1.1165   -1.4317   -0.1613 C   0  0  0  0  0  0  0  0  0  0  0  0
    0.4666   -2.5454   -0.5256 F   0  0  0  0  0  0  0  0  0  0  0  0
    2.2785   -1.5544    0.5906 C   0  0  0  0  0  0  0  0  0  0  0  0
    3.0638    1.7357    0.8794 H   0  0  0  0  0  0  0  0  0  0  0  0
    0.9949    1.9615   -0.4622 H   0  0  0  0  0  0  0  0  0  0  0  0
   -0.8672   -1.0263   -1.8759 H   0  0  0  0  0  0  0  0  0  0  0  0
   -0.5703    0.6858   -2.1183 H   0  0  0  0  0  0  0  0  0  0  0  0
    2.6422   -2.5313    0.8864 H   0  0  0  0  0  0  0  0  0  0  0  0
  1  2  1  0
  2  3  2  0
  3  4  1  0
  4  5  2  0
  5  6  1  0
  6  7  1  0
  7  8  1  0
  8  9  2  0
  9 10  1  0
  9 11  1  0
 11 12  2  0
 12 13  1  0
  5 14  1  0
 14 15  1  0
 14 16  2  0
 16  2  1  0
 12  7  1  0
  3 17  1  0
  4 18  1  0
  6 19  1  0
  6 20  1  0
 16 21  1  0
M  END
