
     RDKit          3D

 15 15  0  0  0  0  0  0  0  0999 V2000
   -1.8866   -0.9279    0.3004 C   0  0  0  0  0  0  0  0  0  0  0  0
   -0.6302   -0.1400    0.0411 C   0  0  0  0  0  0  0  0  0  0  0  0
   -0.6609    1.2444   -0.2013 C   0  0  0  0  0  0  0  0  0  0  0  0
   -2.2585    2.2675   -0.2294 Br  0  0  0  0  0  0  0  0  0  0  0  0
    0.5358    1.9238   -0.4180 C   0  0  0  0  0  0  0  0  0  0  0  0
    1.7537    1.3423   -0.3986 N   0  0  0  0  0  0  0  0  0  0  0  0
    1.7782    0.0254   -0.1373 C   0  0  0  0  0  0  0  0  0  0  0  0
    3.0359   -0.5076   -0.1078 O   0  0  0  0  0  0  0  0  0  0  0  0
    0.6382   -0.7509    0.0944 C   0  0  0  0  0  0  0  0  0  0  0  0
    0.8603   -2.5991    0.4970 Br  0  0  0  0  0  0  0  0  0  0  0  0
   -2.7708   -0.4704   -0.1509 H   0  0  0  0  0  0  0  0  0  0  0  0
   -1.8330   -1.9264   -0.1441 H   0  0  0  0  0  0  0  0  0  0  0  0
   -2.0537   -1.0215    1.3780 H   0  0  0  0  0  0  0  0  0  0  0  0
    0.5534    2.9930   -0.6146 H   0  0  0  0  0  0  0  0  0  0  0  0
    2.9383   -1.4526    0.0912 H   0  0  0  0  0  0  0  0  0  0  0  0
  1  2  1  0
  2  3  2  0
  3  4  1  0
  3  5  1  0
  5  6  2  0
  6  7  1  0
  7  8  1  0
  7  9  2  0
  9 10  1  0
  9  2  1  0
  1 11  1  0
  1 12  1  0
  1 13  1  0
  5 14  1  0
  8 15  1  0
M  END
