
     RDKit          3D

 27 28  0  0  0  0  0  0  0  0999 V2000
    5.2956   -0.9422   -1.9820 Br  0  0  0  0  0  0  0  0  0  0  0  0
    3.9841   -0.7258   -0.6453 C   0  0  0  0  0  0  0  0  0  0  0  0
    3.9276   -1.5229    0.4644 N   0  0  0  0  0  0  0  0  0  0  0  0
    2.8948   -1.0467    1.1209 C   0  0  0  0  0  0  0  0  0  0  0  0
    2.3002   -1.7444    2.7908 Br  0  0  0  0  0  0  0  0  0  0  0  0
    2.3509   -0.0100    0.4182 N   0  0  0  0  0  0  0  0  0  0  0  0
    1.2185    0.8221    0.7652 C   0  0  0  0  0  0  0  0  0  0  0  0
   -0.1430    0.1873    0.4347 C   0  0  0  0  0  0  0  0  0  0  0  0
   -1.2726    1.0055    1.0926 C   0  0  0  0  0  0  0  0  0  0  0  0
   -2.6358    0.8387    0.4166 C   0  0  0  0  0  0  0  0  0  0  0  0
   -2.7618   -0.4992   -0.2954 C   0  0  0  0  0  0  0  0  0  0  0  0
   -1.7020   -0.6591   -1.3851 C   0  0  0  0  0  0  0  0  0  0  0  0
   -0.3850    0.0594   -1.0748 C   0  0  0  0  0  0  0  0  0  0  0  0
    3.0434    0.2221   -0.7137 N   0  0  0  0  0  0  0  0  0  0  0  0
    1.2963    1.0329    1.8384 H   0  0  0  0  0  0  0  0  0  0  0  0
    1.3379    1.7806    0.2449 H   0  0  0  0  0  0  0  0  0  0  0  0
   -0.1691   -0.8249    0.8608 H   0  0  0  0  0  0  0  0  0  0  0  0
   -1.3499    0.7025    2.1447 H   0  0  0  0  0  0  0  0  0  0  0  0
   -1.0238    2.0743    1.1045 H   0  0  0  0  0  0  0  0  0  0  0  0
   -3.4316    0.9495    1.1619 H   0  0  0  0  0  0  0  0  0  0  0  0
   -2.7782    1.6466   -0.3124 H   0  0  0  0  0  0  0  0  0  0  0  0
   -2.6573   -1.3091    0.4375 H   0  0  0  0  0  0  0  0  0  0  0  0
   -3.7601   -0.6042   -0.7351 H   0  0  0  0  0  0  0  0  0  0  0  0
   -2.0901   -0.2818   -2.3392 H   0  0  0  0  0  0  0  0  0  0  0  0
   -1.5135   -1.7291   -1.5353 H   0  0  0  0  0  0  0  0  0  0  0  0
   -0.4064    1.0606   -1.5248 H   0  0  0  0  0  0  0  0  0  0  0  0
    0.4308   -0.4827   -1.5653 H   0  0  0  0  0  0  0  0  0  0  0  0
  1  2  1  0
  2  3  1  0
  3  4  2  0
  4  5  1  0
  4  6  1  0
  6  7  1  0
  7  8  1  0
  8  9  1  0
  9 10  1  0
 10 11  1  0
 11 12  1  0
 12 13  1  0
  6 14  1  0
 14  2  2  0
 13  8  1  0
  7 15  1  0
  7 16  1  0
  8 17  1  0
  9 18  1  0
  9 19  1  0
 10 20  1  0
 10 21  1  0
 11 22  1  0
 11 23  1  0
 12 24  1  0
 12 25  1  0
 13 26  1  0
 13 27  1  0
M  END
