
     RDKit          3D

 18 18  0  0  0  0  0  0  0  0999 V2000
   -1.3911   -1.6775   -0.0181 C   0  0  0  0  0  0  0  0  0  0  0  0
   -0.2093   -0.7441   -0.0292 C   0  0  0  0  0  0  0  0  0  0  0  0
    1.0780   -1.3020   -0.1261 C   0  0  0  0  0  0  0  0  0  0  0  0
    2.2062   -0.4864   -0.1407 C   0  0  0  0  0  0  0  0  0  0  0  0
    3.9247   -1.2638   -0.2718 Br  0  0  0  0  0  0  0  0  0  0  0  0
    2.0779    0.8936   -0.0597 C   0  0  0  0  0  0  0  0  0  0  0  0
    0.8054    1.4627    0.0369 C   0  0  0  0  0  0  0  0  0  0  0  0
    0.7247    3.3622    0.1434 Br  0  0  0  0  0  0  0  0  0  0  0  0
   -0.3568    0.6610    0.0541 C   0  0  0  0  0  0  0  0  0  0  0  0
   -1.7183    1.3024    0.1593 C   0  0  0  0  0  0  0  0  0  0  0  0
   -1.0794   -2.7251   -0.0907 H   0  0  0  0  0  0  0  0  0  0  0  0
   -1.9525   -1.5690    0.9154 H   0  0  0  0  0  0  0  0  0  0  0  0
   -2.0452   -1.4728   -0.8716 H   0  0  0  0  0  0  0  0  0  0  0  0
    1.1977   -2.3819   -0.1904 H   0  0  0  0  0  0  0  0  0  0  0  0
    2.9625    1.5245   -0.0717 H   0  0  0  0  0  0  0  0  0  0  0  0
   -1.7979    1.8710    1.0918 H   0  0  0  0  0  0  0  0  0  0  0  0
   -1.8905    1.9671   -0.6937 H   0  0  0  0  0  0  0  0  0  0  0  0
   -2.5362    0.5780    0.1628 H   0  0  0  0  0  0  0  0  0  0  0  0
  1  2  1  0
  2  3  2  0
  3  4  1  0
  4  5  1  0
  4  6  2  0
  6  7  1  0
  7  8  1  0
  7  9  2  0
  9 10  1  0
  9  2  1  0
  1 11  1  0
  1 12  1  0
  1 13  1  0
  3 14  1  0
  6 15  1  0
 10 16  1  0
 10 17  1  0
 10 18  1  0
M  END
