
     RDKit          3D

 12 12  0  0  0  0  0  0  0  0999 V2000
   -1.9608   -0.5456    0.2955 C   0  0  0  0  0  0  0  0  0  0  0  0
   -0.5047   -0.2747    0.1253 C   0  0  0  0  0  0  0  0  0  0  0  0
    0.6504   -1.4864    0.5137 S   0  0  0  0  0  0  0  0  0  0  0  0
    1.9394   -0.4754    0.0802 C   0  0  0  0  0  0  0  0  0  0  0  0
    3.7700   -1.0138    0.1887 Br  0  0  0  0  0  0  0  0  0  0  0  0
    1.5399    0.7625   -0.3546 C   0  0  0  0  0  0  0  0  0  0  0  0
    0.1247    0.8666   -0.3240 C   0  0  0  0  0  0  0  0  0  0  0  0
   -0.7426    2.4564   -0.8651 Br  0  0  0  0  0  0  0  0  0  0  0  0
   -2.4802   -0.4447   -0.6632 H   0  0  0  0  0  0  0  0  0  0  0  0
   -2.1560   -1.5540    0.6749 H   0  0  0  0  0  0  0  0  0  0  0  0
   -2.3993    0.1664    1.0024 H   0  0  0  0  0  0  0  0  0  0  0  0
    2.2193    1.5427   -0.6738 H   0  0  0  0  0  0  0  0  0  0  0  0
  1  2  1  0
  2  3  1  0
  3  4  1  0
  4  5  1  0
  4  6  2  0
  6  7  1  0
  7  8  1  0
  7  2  2  0
  1  9  1  0
  1 10  1  0
  1 11  1  0
  6 12  1  0
M  END
