
     RDKit          3D

 21 22  0  0  0  0  0  0  0  0999 V2000
    3.1426    1.0151   -1.9539 F   0  0  0  0  0  0  0  0  0  0  0  0
    2.4782    0.4664   -0.9264 C   0  0  0  0  0  0  0  0  0  0  0  0
    1.2175   -0.0796   -1.1614 C   0  0  0  0  0  0  0  0  0  0  0  0
    0.4902   -0.6630   -0.1110 C   0  0  0  0  0  0  0  0  0  0  0  0
   -0.8753   -1.2576   -0.3607 C   0  0  0  0  0  0  0  0  0  0  0  0
   -1.8494   -0.2418   -0.7145 N   0  0  0  0  0  0  0  0  0  0  0  0
   -2.1746   -0.0277   -2.0073 N   0  0  0  0  0  0  0  0  0  0  0  0
   -3.0885    0.9418   -1.8908 C   0  0  0  0  0  0  0  0  0  0  0  0
   -3.9424    1.7065   -3.3872 Br  0  0  0  0  0  0  0  0  0  0  0  0
   -3.3634    1.3308   -0.6092 N   0  0  0  0  0  0  0  0  0  0  0  0
   -2.5719    0.5705    0.1116 C   0  0  0  0  0  0  0  0  0  0  0  0
   -2.4983    0.6426    2.0134 Br  0  0  0  0  0  0  0  0  0  0  0  0
    1.0612   -0.6910    1.1718 C   0  0  0  0  0  0  0  0  0  0  0  0
    2.3268   -0.1398    1.4004 C   0  0  0  0  0  0  0  0  0  0  0  0
    3.0354    0.4400    0.3486 C   0  0  0  0  0  0  0  0  0  0  0  0
    4.5919    1.1115    0.6446 Cl  0  0  0  0  0  0  0  0  0  0  0  0
    0.8129   -0.0397   -2.1712 H   0  0  0  0  0  0  0  0  0  0  0  0
   -1.2531   -1.7920    0.5178 H   0  0  0  0  0  0  0  0  0  0  0  0
   -0.8236   -1.9849   -1.1798 H   0  0  0  0  0  0  0  0  0  0  0  0
    0.5293   -1.1412    2.0088 H   0  0  0  0  0  0  0  0  0  0  0  0
    2.7543   -0.1669    2.4001 H   0  0  0  0  0  0  0  0  0  0  0  0
  1  2  1  0
  2  3  2  0
  3  4  1  0
  4  5  1  0
  5  6  1  0
  6  7  1  0
  7  8  2  0
  8  9  1  0
  8 10  1  0
 10 11  2  0
 11 12  1  0
  4 13  2  0
 13 14  1  0
 14 15  2  0
 15 16  1  0
 15  2  1  0
 11  6  1  0
  3 17  1  0
  5 18  1  0
  5 19  1  0
 13 20  1  0
 14 21  1  0
M  END
