
     RDKit          3D

 14 14  0  0  0  0  0  0  0  0999 V2000
    2.4072   -0.2091    0.1217 C   0  0  0  0  0  0  0  0  0  0  0  0
    0.9650   -0.2906    0.1185 N   0  0  0  0  0  0  0  0  0  0  0  0
    0.3639   -1.4415    0.4846 N   0  0  0  0  0  0  0  0  0  0  0  0
   -0.9389   -1.1668    0.3615 C   0  0  0  0  0  0  0  0  0  0  0  0
   -2.2602   -2.4378    0.7921 Br  0  0  0  0  0  0  0  0  0  0  0  0
   -1.1737    0.1454   -0.0735 C   0  0  0  0  0  0  0  0  0  0  0  0
   -2.4201    0.7782   -0.3076 N   0  0  0  0  0  4  0  0  0  0  0  0
   -3.1991    0.2067   -1.0784 O   0  0  0  0  0  0  0  0  0  0  0  0
   -2.6238    1.8475    0.2786 O   0  0  0  0  0  1  0  0  0  0  0  0
    0.0810    0.6943   -0.2297 C   0  0  0  0  0  0  0  0  0  0  0  0
    0.5219    2.4435   -0.8365 Br  0  0  0  0  0  0  0  0  0  0  0  0
    2.7071    0.6023    0.7894 H   0  0  0  0  0  0  0  0  0  0  0  0
    2.7445   -0.0182   -0.8999 H   0  0  0  0  0  0  0  0  0  0  0  0
    2.8253   -1.1539    0.4791 H   0  0  0  0  0  0  0  0  0  0  0  0
  1  2  1  0
  2  3  1  0
  3  4  2  0
  4  5  1  0
  4  6  1  0
  6  7  1  0
  7  8  2  0
  7  9  1  0
  6 10  2  0
 10 11  1  0
 10  2  1  0
  1 12  1  0
  1 13  1  0
  1 14  1  0
M  CHG  2   7   1   9  -1
M  END
