
     RDKit          3D

 16 16  0  0  0  0  0  0  0  0999 V2000
    2.8489   -1.5619   -0.2169 O   0  0  0  0  0  0  0  0  0  0  0  0
    2.3544   -0.4562   -0.1049 C   0  0  0  0  0  0  0  0  0  0  0  0
    3.1134    0.6493   -0.0273 O   0  0  0  0  0  0  0  0  0  0  0  0
    0.9031   -0.1624   -0.0391 C   0  0  0  0  0  0  0  0  0  0  0  0
    0.0087   -1.2379   -0.1104 C   0  0  0  0  0  0  0  0  0  0  0  0
   -1.3652   -1.0024   -0.0519 C   0  0  0  0  0  0  0  0  0  0  0  0
   -2.5498   -2.4796   -0.1510 Br  0  0  0  0  0  0  0  0  0  0  0  0
   -1.8562    0.3005    0.0775 C   0  0  0  0  0  0  0  0  0  0  0  0
   -3.2032    0.5417    0.1358 O   0  0  0  0  0  0  0  0  0  0  0  0
   -0.9614    1.3718    0.1484 C   0  0  0  0  0  0  0  0  0  0  0  0
   -1.5697    3.1603    0.3242 Br  0  0  0  0  0  0  0  0  0  0  0  0
    0.4162    1.1443    0.0905 C   0  0  0  0  0  0  0  0  0  0  0  0
    4.0336    0.3143   -0.0823 H   0  0  0  0  0  0  0  0  0  0  0  0
    0.3893   -2.2530   -0.2112 H   0  0  0  0  0  0  0  0  0  0  0  0
   -3.6680   -0.3124    0.0724 H   0  0  0  0  0  0  0  0  0  0  0  0
    1.1060    1.9835    0.1463 H   0  0  0  0  0  0  0  0  0  0  0  0
  1  2  2  0
  2  3  1  0
  2  4  1  0
  4  5  2  0
  5  6  1  0
  6  7  1  0
  6  8  2  0
  8  9  1  0
  8 10  1  0
 10 11  1  0
 10 12  2  0
 12  4  1  0
  3 13  1  0
  5 14  1  0
  9 15  1  0
 12 16  1  0
M  END
