
     RDKit          3D

 17 17  0  0  0  0  0  0  0  0999 V2000
   -2.6695    0.2366   -0.2466 C   0  0  0  0  0  0  0  0  0  0  0  0
   -1.1764    0.1072   -0.0993 C   0  0  0  0  0  0  0  0  0  0  0  0
   -0.3123    1.1702   -0.4209 C   0  0  0  0  0  0  0  0  0  0  0  0
   -0.9458    2.8380   -1.0882 Br  0  0  0  0  0  0  0  0  0  0  0  0
    1.0785    1.0426   -0.2906 C   0  0  0  0  0  0  0  0  0  0  0  0
    1.6482   -0.1363    0.1836 C   0  0  0  0  0  0  0  0  0  0  0  0
    3.0380   -0.2947    0.1987 N   0  0  0  0  0  0  0  0  0  0  0  0
    0.8123   -1.2259    0.4145 C   0  0  0  0  0  0  0  0  0  0  0  0
   -0.5795   -1.1072    0.2870 C   0  0  0  0  0  0  0  0  0  0  0  0
   -1.5937   -2.6831    0.6280 Br  0  0  0  0  0  0  0  0  0  0  0  0
   -3.2086   -0.3886    0.4709 H   0  0  0  0  0  0  0  0  0  0  0  0
   -2.9719   -0.0431   -1.2606 H   0  0  0  0  0  0  0  0  0  0  0  0
   -3.0160    1.2531   -0.0394 H   0  0  0  0  0  0  0  0  0  0  0  0
    1.7242    1.8725   -0.5680 H   0  0  0  0  0  0  0  0  0  0  0  0
    3.3683   -1.0291    0.8177 H   0  0  0  0  0  0  0  0  0  0  0  0
    3.5560    0.5705    0.3205 H   0  0  0  0  0  0  0  0  0  0  0  0
    1.2483   -2.1826    0.6925 H   0  0  0  0  0  0  0  0  0  0  0  0
  1  2  1  0
  2  3  2  0
  3  4  1  0
  3  5  1  0
  5  6  2  0
  6  7  1  0
  6  8  1  0
  8  9  2  0
  9 10  1  0
  9  2  1  0
  1 11  1  0
  1 12  1  0
  1 13  1  0
  5 14  1  0
  7 15  1  0
  7 16  1  0
  8 17  1  0
M  END
