
     RDKit          3D

 16 16  0  0  0  0  0  0  0  0999 V2000
    2.6938    0.5796    1.2703 F   0  0  0  0  0  0  0  0  0  0  0  0
    2.7377   -0.1735    0.1511 C   0  0  0  0  0  0  0  0  0  0  0  0
    2.8177    0.6310   -0.9297 F   0  0  0  0  0  0  0  0  0  0  0  0
    3.8511   -0.9352    0.1959 F   0  0  0  0  0  0  0  0  0  0  0  0
    1.6054   -1.0191    0.0676 O   0  0  0  0  0  0  0  0  0  0  0  0
    0.3574   -0.4544    0.0099 C   0  0  0  0  0  0  0  0  0  0  0  0
    0.1045    0.9224    0.0283 C   0  0  0  0  0  0  0  0  0  0  0  0
   -1.2081    1.3949   -0.0353 C   0  0  0  0  0  0  0  0  0  0  0  0
   -1.5320    3.2585   -0.0094 Br  0  0  0  0  0  0  0  0  0  0  0  0
   -2.2819    0.5145   -0.1174 C   0  0  0  0  0  0  0  0  0  0  0  0
   -2.0439   -0.8611   -0.1366 C   0  0  0  0  0  0  0  0  0  0  0  0
   -3.5659   -1.9959   -0.2503 Br  0  0  0  0  0  0  0  0  0  0  0  0
   -0.7298   -1.3516   -0.0734 C   0  0  0  0  0  0  0  0  0  0  0  0
   -0.4140   -3.0606   -0.0960 Cl  0  0  0  0  0  0  0  0  0  0  0  0
    0.9066    1.6529    0.0914 H   0  0  0  0  0  0  0  0  0  0  0  0
   -3.2987    0.8976   -0.1663 H   0  0  0  0  0  0  0  0  0  0  0  0
  1  2  1  0
  2  3  1  0
  2  4  1  0
  2  5  1  0
  5  6  1  0
  6  7  2  0
  7  8  1  0
  8  9  1  0
  8 10  2  0
 10 11  1  0
 11 12  1  0
 11 13  2  0
 13 14  1  0
 13  6  1  0
  7 15  1  0
 10 16  1  0
M  END
