
     RDKit          3D

 15 15  0  0  0  0  0  0  0  0999 V2000
    2.2236   -0.4266   -0.3411 C   0  0  0  0  0  0  0  0  0  0  0  0
    0.7721   -0.1300   -0.0999 C   0  0  0  0  0  0  0  0  0  0  0  0
    0.0425   -0.8756    0.8371 C   0  0  0  0  0  0  0  0  0  0  0  0
   -1.3163   -0.6178    1.0366 C   0  0  0  0  0  0  0  0  0  0  0  0
   -2.2715   -1.6344    2.3151 Br  0  0  0  0  0  0  0  0  0  0  0  0
   -1.9579    0.3744    0.2991 C   0  0  0  0  0  0  0  0  0  0  0  0
   -3.2639    0.6189    0.4932 F   0  0  0  0  0  0  0  0  0  0  0  0
   -1.2428    1.1090   -0.6438 C   0  0  0  0  0  0  0  0  0  0  0  0
   -2.0975    2.4543   -1.6637 Br  0  0  0  0  0  0  0  0  0  0  0  0
    0.1163    0.8572   -0.8491 C   0  0  0  0  0  0  0  0  0  0  0  0
    2.7593    0.4752   -0.6557 H   0  0  0  0  0  0  0  0  0  0  0  0
    2.7055   -0.7878    0.5735 H   0  0  0  0  0  0  0  0  0  0  0  0
    2.3249   -1.1887   -1.1198 H   0  0  0  0  0  0  0  0  0  0  0  0
    0.5371   -1.6571    1.4110 H   0  0  0  0  0  0  0  0  0  0  0  0
    0.6685    1.4292   -1.5924 H   0  0  0  0  0  0  0  0  0  0  0  0
  1  2  1  0
  2  3  2  0
  3  4  1  0
  4  5  1  0
  4  6  2  0
  6  7  1  0
  6  8  1  0
  8  9  1  0
  8 10  2  0
 10  2  1  0
  1 11  1  0
  1 12  1  0
  1 13  1  0
  3 14  1  0
 10 15  1  0
M  END
