
     RDKit          3D

 17 17  0  0  0  0  0  0  0  0999 V2000
   -1.9810    0.7191    0.5647 C   0  0  0  0  0  0  0  0  0  0  0  0
   -0.5985    0.3937    0.0568 C   0  0  0  0  0  0  0  0  0  0  0  0
    0.0781   -0.7682    0.4905 C   0  0  0  0  0  0  0  0  0  0  0  0
   -0.4522   -1.6131    1.4810 N   0  0  0  0  0  0  0  0  0  0  0  0
    1.4024   -0.9859    0.0819 C   0  0  0  0  0  0  0  0  0  0  0  0
    2.0106   -0.1413   -0.8420 C   0  0  0  0  0  0  0  0  0  0  0  0
    3.7812   -0.4867   -1.4081 Br  0  0  0  0  0  0  0  0  0  0  0  0
    1.3237    0.9503   -1.3531 C   0  0  0  0  0  0  0  0  0  0  0  0
    0.0275    1.2168   -0.9050 C   0  0  0  0  0  0  0  0  0  0  0  0
   -0.8370    2.7330   -1.6672 Br  0  0  0  0  0  0  0  0  0  0  0  0
   -2.7342    0.3541   -0.1403 H   0  0  0  0  0  0  0  0  0  0  0  0
   -2.1780    0.2773    1.5458 H   0  0  0  0  0  0  0  0  0  0  0  0
   -2.1114    1.7957    0.7110 H   0  0  0  0  0  0  0  0  0  0  0  0
   -0.0216   -2.5326    1.5139 H   0  0  0  0  0  0  0  0  0  0  0  0
   -1.4648   -1.6803    1.4737 H   0  0  0  0  0  0  0  0  0  0  0  0
    1.9580   -1.8302    0.4823 H   0  0  0  0  0  0  0  0  0  0  0  0
    1.7971    1.5983   -2.0859 H   0  0  0  0  0  0  0  0  0  0  0  0
  1  2  1  0
  2  3  2  0
  3  4  1  0
  3  5  1  0
  5  6  2  0
  6  7  1  0
  6  8  1  0
  8  9  2  0
  9 10  1  0
  9  2  1  0
  1 11  1  0
  1 12  1  0
  1 13  1  0
  4 14  1  0
  4 15  1  0
  5 16  1  0
  8 17  1  0
M  END
