
     RDKit          3D

 14 14  0  0  0  0  0  0  0  0999 V2000
   -2.1983   -0.5614    0.0034 C   0  0  0  0  0  0  0  0  0  0  0  0
   -0.7254   -0.2746   -0.0264 C   0  0  0  0  0  0  0  0  0  0  0  0
    0.0680   -1.3118   -0.4091 N   0  0  0  0  0  0  0  0  0  0  0  0
    1.4048   -1.0980   -0.4504 C   0  0  0  0  0  0  0  0  0  0  0  0
    1.9969    0.1103   -0.1260 C   0  0  0  0  0  0  0  0  0  0  0  0
    3.8680    0.3219   -0.2108 Br  0  0  0  0  0  0  0  0  0  0  0  0
    1.1826    1.1659    0.2640 C   0  0  0  0  0  0  0  0  0  0  0  0
   -0.1990    0.9748    0.3159 C   0  0  0  0  0  0  0  0  0  0  0  0
   -1.2843    2.4330    0.8515 Br  0  0  0  0  0  0  0  0  0  0  0  0
   -2.3970   -1.5954   -0.2988 H   0  0  0  0  0  0  0  0  0  0  0  0
   -2.7320    0.0946   -0.6910 H   0  0  0  0  0  0  0  0  0  0  0  0
   -2.5954   -0.4302    1.0146 H   0  0  0  0  0  0  0  0  0  0  0  0
    1.9941   -1.9559   -0.7616 H   0  0  0  0  0  0  0  0  0  0  0  0
    1.6171    2.1267    0.5248 H   0  0  0  0  0  0  0  0  0  0  0  0
  1  2  1  0
  2  3  2  0
  3  4  1  0
  4  5  2  0
  5  6  1  0
  5  7  1  0
  7  8  2  0
  8  9  1  0
  8  2  1  0
  1 10  1  0
  1 11  1  0
  1 12  1  0
  4 13  1  0
  7 14  1  0
M  END
