
     RDKit          3D

 12 12  0  0  0  0  0  0  0  0999 V2000
    1.3728    3.1017   -0.0113 N   0  0  0  0  0  0  0  0  0  0  0  0
    0.9031    2.0405   -0.0075 C   0  0  0  0  0  0  0  0  0  0  0  0
    0.3231    0.7301   -0.0027 C   0  0  0  0  0  0  0  0  0  0  0  0
    1.1344   -0.4086    0.0577 C   0  0  0  0  0  0  0  0  0  0  0  0
    3.0271   -0.3350    0.1369 Br  0  0  0  0  0  0  0  0  0  0  0  0
    0.5249   -1.6560    0.0598 C   0  0  0  0  0  0  0  0  0  0  0  0
   -0.8135   -1.8382    0.0067 N   0  0  0  0  0  0  0  0  0  0  0  0
   -1.5788   -0.7254   -0.0511 C   0  0  0  0  0  0  0  0  0  0  0  0
   -1.0654    0.5646   -0.0583 C   0  0  0  0  0  0  0  0  0  0  0  0
   -2.2838    2.0145   -0.1430 Br  0  0  0  0  0  0  0  0  0  0  0  0
    1.1053   -2.5746    0.1053 H   0  0  0  0  0  0  0  0  0  0  0  0
   -2.6492   -0.9137   -0.0926 H   0  0  0  0  0  0  0  0  0  0  0  0
  1  2  3  0
  2  3  1  0
  3  4  2  0
  4  5  1  0
  4  6  1  0
  6  7  2  0
  7  8  1  0
  8  9  2  0
  9 10  1  0
  9  3  1  0
  6 11  1  0
  8 12  1  0
M  END
