
     RDKit          3D

 17 17  0  0  0  0  0  0  0  0999 V2000
   -2.0000    0.7727    0.1642 C   0  0  0  0  0  0  0  0  0  0  0  0
   -0.5369    0.4144    0.1012 C   0  0  0  0  0  0  0  0  0  0  0  0
   -0.1236   -0.9300   -0.0188 C   0  0  0  0  0  0  0  0  0  0  0  0
   -1.0290   -1.9939   -0.1900 N   0  0  0  0  0  0  0  0  0  0  0  0
    1.2396   -1.2305   -0.1497 C   0  0  0  0  0  0  0  0  0  0  0  0
    2.1992   -0.2282   -0.0589 C   0  0  0  0  0  0  0  0  0  0  0  0
    4.0328   -0.6649   -0.2009 Br  0  0  0  0  0  0  0  0  0  0  0  0
    1.8168    1.0907    0.1416 C   0  0  0  0  0  0  0  0  0  0  0  0
    0.4580    1.4091    0.2237 C   0  0  0  0  0  0  0  0  0  0  0  0
    0.0366    3.2432    0.5175 Br  0  0  0  0  0  0  0  0  0  0  0  0
   -2.2054    1.7262   -0.3313 H   0  0  0  0  0  0  0  0  0  0  0  0
   -2.6252    0.0454   -0.3620 H   0  0  0  0  0  0  0  0  0  0  0  0
   -2.3271    0.8285    1.2070 H   0  0  0  0  0  0  0  0  0  0  0  0
   -1.0981   -2.2682   -1.1679 H   0  0  0  0  0  0  0  0  0  0  0  0
   -1.9523   -1.8187    0.1925 H   0  0  0  0  0  0  0  0  0  0  0  0
    1.5438   -2.2644   -0.2971 H   0  0  0  0  0  0  0  0  0  0  0  0
    2.5707    1.8686    0.2289 H   0  0  0  0  0  0  0  0  0  0  0  0
  1  2  1  0
  2  3  2  0
  3  4  1  0
  3  5  1  0
  5  6  2  0
  6  7  1  0
  6  8  1  0
  8  9  2  0
  9 10  1  0
  9  2  1  0
  1 11  1  0
  1 12  1  0
  1 13  1  0
  4 14  1  0
  4 15  1  0
  5 16  1  0
  8 17  1  0
M  END
