
     RDKit          3D

 21 22  0  0  0  0  0  0  0  0999 V2000
   -4.2266    0.8718   -1.0868 F   0  0  0  0  0  0  0  0  0  0  0  0
   -3.0427    0.5781   -0.5343 C   0  0  0  0  0  0  0  0  0  0  0  0
   -2.5363   -0.7127   -0.6499 C   0  0  0  0  0  0  0  0  0  0  0  0
   -1.3030   -1.0289   -0.0750 C   0  0  0  0  0  0  0  0  0  0  0  0
   -0.5763   -0.0474    0.6179 C   0  0  0  0  0  0  0  0  0  0  0  0
    0.7677   -0.3475    1.2277 C   0  0  0  0  0  0  0  0  0  0  0  0
    1.8285   -0.2828    0.2394 N   0  0  0  0  0  0  0  0  0  0  0  0
    2.3526    0.9064   -0.1256 N   0  0  0  0  0  0  0  0  0  0  0  0
    3.2795    0.5284   -1.0108 C   0  0  0  0  0  0  0  0  0  0  0  0
    4.3736    1.7671   -1.9170 Br  0  0  0  0  0  0  0  0  0  0  0  0
    3.3821   -0.8211   -1.2033 N   0  0  0  0  0  0  0  0  0  0  0  0
    2.4648   -1.3090   -0.4002 C   0  0  0  0  0  0  0  0  0  0  0  0
    2.1385   -3.1770   -0.2127 Br  0  0  0  0  0  0  0  0  0  0  0  0
   -1.1170    1.2412    0.7166 C   0  0  0  0  0  0  0  0  0  0  0  0
   -0.4523    2.1914    1.3881 F   0  0  0  0  0  0  0  0  0  0  0  0
   -2.3431    1.5621    0.1472 C   0  0  0  0  0  0  0  0  0  0  0  0
   -3.1063   -1.4637   -1.1897 H   0  0  0  0  0  0  0  0  0  0  0  0
   -0.9228   -2.0429   -0.1755 H   0  0  0  0  0  0  0  0  0  0  0  0
    1.0174    0.3626    2.0250 H   0  0  0  0  0  0  0  0  0  0  0  0
    0.7667   -1.3408    1.6880 H   0  0  0  0  0  0  0  0  0  0  0  0
   -2.7451    2.5646    0.2343 H   0  0  0  0  0  0  0  0  0  0  0  0
  1  2  1  0
  2  3  2  0
  3  4  1  0
  4  5  2  0
  5  6  1  0
  6  7  1  0
  7  8  1  0
  8  9  2  0
  9 10  1  0
  9 11  1  0
 11 12  2  0
 12 13  1  0
  5 14  1  0
 14 15  1  0
 14 16  2  0
 16  2  1  0
 12  7  1  0
  3 17  1  0
  4 18  1  0
  6 19  1  0
  6 20  1  0
 16 21  1  0
M  END
