
     RDKit          3D

 15 15  0  0  0  0  0  0  0  0999 V2000
    2.2573    0.1934    0.0946 C   0  0  0  0  0  0  0  0  0  0  0  0
    0.7678    0.0511    0.0092 C   0  0  0  0  0  0  0  0  0  0  0  0
    0.1709   -1.2084   -0.1368 C   0  0  0  0  0  0  0  0  0  0  0  0
   -1.2209   -1.3221   -0.1879 C   0  0  0  0  0  0  0  0  0  0  0  0
   -2.0107   -3.0280   -0.3933 Br  0  0  0  0  0  0  0  0  0  0  0  0
   -2.0344   -0.1943   -0.0867 C   0  0  0  0  0  0  0  0  0  0  0  0
   -1.4436    1.0587    0.0714 C   0  0  0  0  0  0  0  0  0  0  0  0
   -2.5449    2.5899    0.2187 Br  0  0  0  0  0  0  0  0  0  0  0  0
   -0.0541    1.1779    0.1229 C   0  0  0  0  0  0  0  0  0  0  0  0
    0.5140    2.3833    0.2843 F   0  0  0  0  0  0  0  0  0  0  0  0
    2.5965    1.0584   -0.4848 H   0  0  0  0  0  0  0  0  0  0  0  0
    2.5625    0.3187    1.1380 H   0  0  0  0  0  0  0  0  0  0  0  0
    2.7635   -0.6885   -0.3120 H   0  0  0  0  0  0  0  0  0  0  0  0
    0.7921   -2.0988   -0.2110 H   0  0  0  0  0  0  0  0  0  0  0  0
   -3.1159   -0.2913   -0.1267 H   0  0  0  0  0  0  0  0  0  0  0  0
  1  2  1  0
  2  3  2  0
  3  4  1  0
  4  5  1  0
  4  6  2  0
  6  7  1  0
  7  8  1  0
  7  9  2  0
  9 10  1  0
  9  2  1  0
  1 11  1  0
  1 12  1  0
  1 13  1  0
  3 14  1  0
  6 15  1  0
M  END
