
     RDKit          3D

 26 27  0  0  0  0  0  0  0  0999 V2000
    2.3515    3.1303   -2.5480 Br  0  0  0  0  0  0  0  0  0  0  0  0
    2.4171    1.6192   -1.4224 C   0  0  0  0  0  0  0  0  0  0  0  0
    3.2915    1.5209   -0.3772 N   0  0  0  0  0  0  0  0  0  0  0  0
    3.0091    0.3446    0.1351 C   0  0  0  0  0  0  0  0  0  0  0  0
    3.9573   -0.4006    1.6104 Br  0  0  0  0  0  0  0  0  0  0  0  0
    1.9846   -0.2250   -0.5682 N   0  0  0  0  0  0  0  0  0  0  0  0
    1.3952   -1.5355   -0.4098 C   0  0  0  0  0  0  0  0  0  0  0  0
    0.5232   -1.7308    0.8345 C   0  0  0  0  0  0  0  0  0  0  0  0
   -0.7197   -0.8444    0.8756 C   0  0  0  0  0  0  0  0  0  0  0  0
   -1.4585   -1.0185   -0.3233 O   0  0  0  0  0  0  0  0  0  0  0  0
   -2.7061   -0.3296   -0.2778 C   0  0  0  0  0  0  0  0  0  0  0  0
   -2.6141    0.9875    0.4802 C   0  0  0  0  0  0  0  0  0  0  0  0
   -1.1751    1.4610    0.4913 C   0  0  0  0  0  0  0  0  0  0  0  0
   -0.3107    0.5013    1.0984 O   0  0  0  0  0  0  0  0  0  0  0  0
    1.6236    0.5599   -1.6053 N   0  0  0  0  0  0  0  0  0  0  0  0
    2.2266   -2.2504   -0.3876 H   0  0  0  0  0  0  0  0  0  0  0  0
    0.8228   -1.7583   -1.3182 H   0  0  0  0  0  0  0  0  0  0  0  0
    1.1165   -1.5631    1.7396 H   0  0  0  0  0  0  0  0  0  0  0  0
    0.2023   -2.7800    0.8423 H   0  0  0  0  0  0  0  0  0  0  0  0
   -1.3325   -1.1600    1.7303 H   0  0  0  0  0  0  0  0  0  0  0  0
   -3.4624   -0.9836    0.1701 H   0  0  0  0  0  0  0  0  0  0  0  0
   -3.0085   -0.1483   -1.3145 H   0  0  0  0  0  0  0  0  0  0  0  0
   -2.9417    0.8197    1.5139 H   0  0  0  0  0  0  0  0  0  0  0  0
   -3.2880    1.7333    0.0467 H   0  0  0  0  0  0  0  0  0  0  0  0
   -0.8230    1.6545   -0.5278 H   0  0  0  0  0  0  0  0  0  0  0  0
   -1.0807    2.3960    1.0521 H   0  0  0  0  0  0  0  0  0  0  0  0
  1  2  1  0
  2  3  1  0
  3  4  2  0
  4  5  1  0
  4  6  1  0
  6  7  1  0
  7  8  1  0
  8  9  1  0
  9 10  1  0
 10 11  1  0
 11 12  1  0
 12 13  1  0
 13 14  1  0
  6 15  1  0
 15  2  2  0
 14  9  1  0
  7 16  1  0
  7 17  1  0
  8 18  1  0
  8 19  1  0
  9 20  1  0
 11 21  1  0
 11 22  1  0
 12 23  1  0
 12 24  1  0
 13 25  1  0
 13 26  1  0
M  END
