
     RDKit          3D

 19 19  0  0  0  0  0  0  0  0999 V2000
    3.2692    0.3223   -0.4355 C   0  0  0  0  0  0  0  0  0  0  0  0
    2.5345   -0.7319    0.1917 O   0  0  0  0  0  0  0  0  0  0  0  0
    1.1899   -0.4581    0.1839 C   0  0  0  0  0  0  0  0  0  0  0  0
    0.5970    0.2043    1.2673 C   0  0  0  0  0  0  0  0  0  0  0  0
    1.6063    0.7605    2.7767 Br  0  0  0  0  0  0  0  0  0  0  0  0
   -0.7772    0.4578    1.2737 C   0  0  0  0  0  0  0  0  0  0  0  0
   -1.5740    0.0285    0.2060 C   0  0  0  0  0  0  0  0  0  0  0  0
   -3.0267    0.3189    0.2568 C   0  0  0  0  0  0  0  0  0  0  0  0
   -3.6012    0.9113    1.1503 O   0  0  0  0  0  0  0  0  0  0  0  0
   -3.6874   -0.1449   -0.8171 O   0  0  0  0  0  0  0  0  0  0  0  0
   -0.9941   -0.6671   -0.8610 C   0  0  0  0  0  0  0  0  0  0  0  0
    0.3811   -0.9185   -0.8643 C   0  0  0  0  0  0  0  0  0  0  0  0
    1.0929   -1.9200   -2.3130 Br  0  0  0  0  0  0  0  0  0  0  0  0
    3.1435    1.2716    0.0952 H   0  0  0  0  0  0  0  0  0  0  0  0
    4.3294    0.0545   -0.4026 H   0  0  0  0  0  0  0  0  0  0  0  0
    2.9831    0.4427   -1.4854 H   0  0  0  0  0  0  0  0  0  0  0  0
   -1.2343    0.9798    2.1130 H   0  0  0  0  0  0  0  0  0  0  0  0
   -4.6202    0.1103   -0.6529 H   0  0  0  0  0  0  0  0  0  0  0  0
   -1.6119   -1.0220   -1.6829 H   0  0  0  0  0  0  0  0  0  0  0  0
  1  2  1  0
  2  3  1  0
  3  4  2  0
  4  5  1  0
  4  6  1  0
  6  7  2  0
  7  8  1  0
  8  9  2  0
  8 10  1  0
  7 11  1  0
 11 12  2  0
 12 13  1  0
 12  3  1  0
  1 14  1  0
  1 15  1  0
  1 16  1  0
  6 17  1  0
 10 18  1  0
 11 19  1  0
M  END
