
     RDKit          3D

 19 19  0  0  0  0  0  0  0  0999 V2000
    3.7351    0.8702    0.9068 N   0  0  0  0  0  0  0  0  0  0  0  0
    2.3520    0.8812    0.6182 N   0  0  0  0  0  0  0  0  0  0  0  0
    1.7299   -0.3141    0.2768 C   0  0  0  0  0  0  0  0  0  0  0  0
    2.3365   -1.3748    0.1565 O   0  0  0  0  0  0  0  0  0  0  0  0
    0.2545   -0.2673    0.0922 C   0  0  0  0  0  0  0  0  0  0  0  0
   -0.4775   -1.4406    0.3193 C   0  0  0  0  0  0  0  0  0  0  0  0
   -1.8643   -1.4453    0.1531 C   0  0  0  0  0  0  0  0  0  0  0  0
   -2.8054   -3.0576    0.4877 Br  0  0  0  0  0  0  0  0  0  0  0  0
   -2.5264   -0.2834   -0.2502 C   0  0  0  0  0  0  0  0  0  0  0  0
   -3.8866   -0.3021   -0.4076 O   0  0  0  0  0  0  0  0  0  0  0  0
   -1.7909    0.8812   -0.4926 C   0  0  0  0  0  0  0  0  0  0  0  0
   -2.6550    2.4718   -1.0594 Br  0  0  0  0  0  0  0  0  0  0  0  0
   -0.4038    0.8953   -0.3271 C   0  0  0  0  0  0  0  0  0  0  0  0
    3.9419   -0.0402    1.3406 H   0  0  0  0  0  0  0  0  0  0  0  0
    4.2312    0.8103    0.0113 H   0  0  0  0  0  0  0  0  0  0  0  0
    1.8097    1.6829    0.9319 H   0  0  0  0  0  0  0  0  0  0  0  0
    0.0396   -2.3481    0.6281 H   0  0  0  0  0  0  0  0  0  0  0  0
   -4.1737    0.5801   -0.7050 H   0  0  0  0  0  0  0  0  0  0  0  0
    0.1533    1.8004   -0.5531 H   0  0  0  0  0  0  0  0  0  0  0  0
  1  2  1  0
  2  3  1  0
  3  4  2  0
  3  5  1  0
  5  6  2  0
  6  7  1  0
  7  8  1  0
  7  9  2  0
  9 10  1  0
  9 11  1  0
 11 12  1  0
 11 13  2  0
 13  5  1  0
  1 14  1  0
  1 15  1  0
  2 16  1  0
  6 17  1  0
 10 18  1  0
 13 19  1  0
M  END
