
     RDKit          3D

 14 14  0  0  0  0  0  0  0  0999 V2000
    2.0125   -0.2381    0.1476 C   0  0  0  0  0  0  0  0  0  0  0  0
    0.5772   -0.0476    0.0478 N   0  0  0  0  0  0  0  0  0  0  0  0
   -0.2303   -1.1067   -0.3161 C   0  0  0  0  0  0  0  0  0  0  0  0
   -1.5613   -0.9646   -0.4177 C   0  0  0  0  0  0  0  0  0  0  0  0
   -2.6449   -2.4065   -0.9115 Br  0  0  0  0  0  0  0  0  0  0  0  0
   -2.2321    0.2073   -0.1787 N   0  0  0  0  0  0  0  0  0  0  0  0
   -1.5106    1.2325    0.1673 C   0  0  0  0  0  0  0  0  0  0  0  0
   -2.4475    2.8647    0.5000 Br  0  0  0  0  0  0  0  0  0  0  0  0
    0.0119    1.1964    0.3169 C   0  0  0  0  0  0  0  0  0  0  0  0
    0.6256    2.2012    0.6462 O   0  0  0  0  0  0  0  0  0  0  0  0
    2.5208    0.6835    0.4439 H   0  0  0  0  0  0  0  0  0  0  0  0
    2.3987   -0.5567   -0.8257 H   0  0  0  0  0  0  0  0  0  0  0  0
    2.2188   -1.0106    0.8949 H   0  0  0  0  0  0  0  0  0  0  0  0
    0.2612   -2.0548   -0.5148 H   0  0  0  0  0  0  0  0  0  0  0  0
  1  2  1  0
  2  3  1  0
  3  4  2  0
  4  5  1  0
  4  6  1  0
  6  7  2  0
  7  8  1  0
  7  9  1  0
  9 10  2  0
  9  2  1  0
  1 11  1  0
  1 12  1  0
  1 13  1  0
  3 14  1  0
M  END
