
     RDKit          3D

 23 24  0  0  0  0  0  0  0  0999 V2000
   -3.7649    2.3386    0.7242 O   0  0  0  0  0  0  0  0  0  0  0  0
   -2.5948    2.0666    1.0291 N   0  0  0  0  0  4  0  0  0  0  0  0
   -1.8553    2.7978    1.7023 O   0  0  0  0  0  1  0  0  0  0  0  0
   -2.0495    0.7841    0.5657 C   0  0  0  0  0  0  0  0  0  0  0  0
   -2.8880   -0.1302   -0.0827 C   0  0  0  0  0  0  0  0  0  0  0  0
   -2.3683   -1.3503   -0.5141 C   0  0  0  0  0  0  0  0  0  0  0  0
   -1.0213   -1.6561   -0.3021 C   0  0  0  0  0  0  0  0  0  0  0  0
   -0.1698   -0.7438    0.3413 C   0  0  0  0  0  0  0  0  0  0  0  0
    1.2876   -1.0757    0.5606 C   0  0  0  0  0  0  0  0  0  0  0  0
    2.1541   -0.2558   -0.2655 N   0  0  0  0  0  0  0  0  0  0  0  0
    2.7283    0.8557    0.2416 N   0  0  0  0  0  0  0  0  0  0  0  0
    3.4335    1.2898   -0.8085 C   0  0  0  0  0  0  0  0  0  0  0  0
    4.4785    2.8570   -0.7425 Br  0  0  0  0  0  0  0  0  0  0  0  0
    3.3468    0.5106   -1.9287 N   0  0  0  0  0  0  0  0  0  0  0  0
    2.5378   -0.4559   -1.5604 C   0  0  0  0  0  0  0  0  0  0  0  0
    2.0249   -1.8849   -2.7104 Br  0  0  0  0  0  0  0  0  0  0  0  0
   -0.6960    0.4840    0.7796 C   0  0  0  0  0  0  0  0  0  0  0  0
   -3.9397    0.0901   -0.2557 H   0  0  0  0  0  0  0  0  0  0  0  0
   -3.0150   -2.0667   -1.0174 H   0  0  0  0  0  0  0  0  0  0  0  0
   -0.6457   -2.6184   -0.6479 H   0  0  0  0  0  0  0  0  0  0  0  0
    1.5034   -2.1263    0.3379 H   0  0  0  0  0  0  0  0  0  0  0  0
    1.5576   -0.9109    1.6106 H   0  0  0  0  0  0  0  0  0  0  0  0
   -0.0441    1.2008    1.2806 H   0  0  0  0  0  0  0  0  0  0  0  0
  1  2  2  0
  2  3  1  0
  2  4  1  0
  4  5  2  0
  5  6  1  0
  6  7  2  0
  7  8  1  0
  8  9  1  0
  9 10  1  0
 10 11  1  0
 11 12  2  0
 12 13  1  0
 12 14  1  0
 14 15  2  0
 15 16  1  0
  8 17  2  0
 17  4  1  0
 15 10  1  0
  5 18  1  0
  6 19  1  0
  7 20  1  0
  9 21  1  0
  9 22  1  0
 17 23  1  0
M  CHG  2   2   1   3  -1
M  END
