
     RDKit          3D

 12 12  0  0  0  0  0  0  0  0999 V2000
    0.6444    2.1309    0.2096 O   0  0  0  0  0  0  0  0  0  0  0  0
    0.2848    0.8132    0.0917 C   0  0  0  0  0  0  0  0  0  0  0  0
   -1.0043    0.4516   -0.2983 C   0  0  0  0  0  0  0  0  0  0  0  0
   -2.3239    1.7477   -0.6851 Br  0  0  0  0  0  0  0  0  0  0  0  0
   -1.3069   -0.8983   -0.3994 C   0  0  0  0  0  0  0  0  0  0  0  0
   -0.4205   -1.8884   -0.1405 N   0  0  0  0  0  0  0  0  0  0  0  0
    0.8242   -1.5048    0.2363 C   0  0  0  0  0  0  0  0  0  0  0  0
    1.2215   -0.1813    0.3656 C   0  0  0  0  0  0  0  0  0  0  0  0
    2.9916    0.2116    0.9004 Br  0  0  0  0  0  0  0  0  0  0  0  0
   -0.1268    2.6814   -0.0179 H   0  0  0  0  0  0  0  0  0  0  0  0
   -2.2943   -1.2396   -0.6986 H   0  0  0  0  0  0  0  0  0  0  0  0
    1.5101   -2.3240    0.4362 H   0  0  0  0  0  0  0  0  0  0  0  0
  1  2  1  0
  2  3  2  0
  3  4  1  0
  3  5  1  0
  5  6  2  0
  6  7  1  0
  7  8  2  0
  8  9  1  0
  8  2  1  0
  1 10  1  0
  5 11  1  0
  7 12  1  0
M  END
