
     RDKit          3D

 23 23  0  0  0  0  0  0  0  0999 V2000
   -1.8076    0.1298   -1.3560 C   0  0  0  0  0  0  0  0  0  0  0  0
   -1.2783    0.2287    0.0753 C   0  0  0  0  0  0  0  0  0  0  0  0
   -2.4497    0.4077    1.0456 C   0  0  0  0  0  0  0  0  0  0  0  0
   -0.4508   -1.0063    0.4835 C   0  0  0  0  0  0  0  0  0  0  0  0
    0.8116   -1.2558   -0.3470 C   0  0  0  0  0  0  0  0  0  0  0  0
    1.7952   -0.2006   -0.2483 N   0  0  0  0  0  0  0  0  0  0  0  0
    1.8904    0.7305   -1.2173 N   0  0  0  0  0  0  0  0  0  0  0  0
    2.8956    1.4843   -0.7602 C   0  0  0  0  0  0  0  0  0  0  0  0
    3.5188    3.0025   -1.6875 Br  0  0  0  0  0  0  0  0  0  0  0  0
    3.4389    1.0729    0.4253 N   0  0  0  0  0  0  0  0  0  0  0  0
    2.7322    0.0068    0.7228 C   0  0  0  0  0  0  0  0  0  0  0  0
    3.0229   -1.0397    2.2878 Br  0  0  0  0  0  0  0  0  0  0  0  0
   -2.3995   -0.7806   -1.4981 H   0  0  0  0  0  0  0  0  0  0  0  0
   -2.4463    0.9876   -1.5932 H   0  0  0  0  0  0  0  0  0  0  0  0
   -0.9923    0.1236   -2.0852 H   0  0  0  0  0  0  0  0  0  0  0  0
   -0.6510    1.1250    0.1506 H   0  0  0  0  0  0  0  0  0  0  0  0
   -3.1258   -0.4536    1.0164 H   0  0  0  0  0  0  0  0  0  0  0  0
   -2.0895    0.5221    2.0735 H   0  0  0  0  0  0  0  0  0  0  0  0
   -3.0295    1.3024    0.7951 H   0  0  0  0  0  0  0  0  0  0  0  0
   -1.0840   -1.9006    0.4178 H   0  0  0  0  0  0  0  0  0  0  0  0
   -0.1687   -0.9069    1.5393 H   0  0  0  0  0  0  0  0  0  0  0  0
    1.2952   -2.1814   -0.0144 H   0  0  0  0  0  0  0  0  0  0  0  0
    0.5723   -1.3985   -1.4063 H   0  0  0  0  0  0  0  0  0  0  0  0
  1  2  1  0
  2  3  1  0
  2  4  1  0
  4  5  1  0
  5  6  1  0
  6  7  1  0
  7  8  2  0
  8  9  1  0
  8 10  1  0
 10 11  2  0
 11 12  1  0
 11  6  1  0
  1 13  1  0
  1 14  1  0
  1 15  1  0
  2 16  1  0
  3 17  1  0
  3 18  1  0
  3 19  1  0
  4 20  1  0
  4 21  1  0
  5 22  1  0
  5 23  1  0
M  END
