
     RDKit          3D

 15 15  0  0  0  0  0  0  0  0999 V2000
    2.9331    0.7947   -0.1398 O   0  0  0  0  0  0  0  0  0  0  0  0
    2.1468   -0.1274   -0.0341 C   0  0  0  0  0  0  0  0  0  0  0  0
    2.5672   -1.3986    0.0792 O   0  0  0  0  0  0  0  0  0  0  0  0
    0.6699   -0.0073   -0.0138 C   0  0  0  0  0  0  0  0  0  0  0  0
    0.1100    1.2717   -0.1248 C   0  0  0  0  0  0  0  0  0  0  0  0
   -1.2759    1.4225   -0.1094 C   0  0  0  0  0  0  0  0  0  0  0  0
   -2.0306    3.1495   -0.2594 Br  0  0  0  0  0  0  0  0  0  0  0  0
   -2.1112    0.3141    0.0153 C   0  0  0  0  0  0  0  0  0  0  0  0
   -1.5472   -0.9557    0.1254 C   0  0  0  0  0  0  0  0  0  0  0  0
   -2.6729   -2.4657    0.2951 Br  0  0  0  0  0  0  0  0  0  0  0  0
   -0.1630   -1.1261    0.1119 C   0  0  0  0  0  0  0  0  0  0  0  0
    3.5452   -1.3296    0.0515 H   0  0  0  0  0  0  0  0  0  0  0  0
    0.7566    2.1419   -0.2225 H   0  0  0  0  0  0  0  0  0  0  0  0
   -3.1910    0.4386    0.0267 H   0  0  0  0  0  0  0  0  0  0  0  0
    0.2630   -2.1228    0.1987 H   0  0  0  0  0  0  0  0  0  0  0  0
  1  2  2  0
  2  3  1  0
  2  4  1  0
  4  5  2  0
  5  6  1  0
  6  7  1  0
  6  8  2  0
  8  9  1  0
  9 10  1  0
  9 11  2  0
 11  4  1  0
  3 12  1  0
  5 13  1  0
  8 14  1  0
 11 15  1  0
M  END
