
     RDKit          3D

 20 20  0  0  0  0  0  0  0  0999 V2000
   -2.6937    1.0970   -0.1087 C   0  0  0  0  0  0  0  0  0  0  0  0
   -1.4336    0.2827   -0.3580 C   0  0  0  0  0  0  0  0  0  0  0  0
   -0.9547   -0.4095    0.9197 C   0  0  0  0  0  0  0  0  0  0  0  0
    0.2691   -1.2995    0.6946 C   0  0  0  0  0  0  0  0  0  0  0  0
    1.4691   -0.5642    0.3625 N   0  0  0  0  0  0  0  0  0  0  0  0
    2.1223    0.1222    1.3211 N   0  0  0  0  0  0  0  0  0  0  0  0
    3.1473    0.6307    0.6294 C   0  0  0  0  0  0  0  0  0  0  0  0
    4.4577    1.7257    1.4277 Br  0  0  0  0  0  0  0  0  0  0  0  0
    3.1763    0.2976   -0.6961 N   0  0  0  0  0  0  0  0  0  0  0  0
    2.1114   -0.4580   -0.8378 C   0  0  0  0  0  0  0  0  0  0  0  0
    1.6024   -1.2397   -2.4991 Br  0  0  0  0  0  0  0  0  0  0  0  0
   -3.0189    1.5843   -1.0332 H   0  0  0  0  0  0  0  0  0  0  0  0
   -3.5102    0.4588    0.2441 H   0  0  0  0  0  0  0  0  0  0  0  0
   -2.5160    1.8746    0.6411 H   0  0  0  0  0  0  0  0  0  0  0  0
   -1.6377   -0.4652   -1.1328 H   0  0  0  0  0  0  0  0  0  0  0  0
   -0.6546    0.9494   -0.7436 H   0  0  0  0  0  0  0  0  0  0  0  0
   -1.7660   -1.0345    1.3129 H   0  0  0  0  0  0  0  0  0  0  0  0
   -0.7355    0.3451    1.6853 H   0  0  0  0  0  0  0  0  0  0  0  0
    0.0749   -2.0375   -0.0894 H   0  0  0  0  0  0  0  0  0  0  0  0
    0.4903   -1.8600    1.6111 H   0  0  0  0  0  0  0  0  0  0  0  0
  1  2  1  0
  2  3  1  0
  3  4  1  0
  4  5  1  0
  5  6  1  0
  6  7  2  0
  7  8  1  0
  7  9  1  0
  9 10  2  0
 10 11  1  0
 10  5  1  0
  1 12  1  0
  1 13  1  0
  1 14  1  0
  2 15  1  0
  2 16  1  0
  3 17  1  0
  3 18  1  0
  4 19  1  0
  4 20  1  0
M  END
