
     RDKit          3D

 12 12  0  0  0  0  0  0  0  0999 V2000
    3.5999   -0.9910   -0.3257 N   0  0  0  0  0  0  0  0  0  0  0  0
    2.4691   -0.7405   -0.2281 C   0  0  0  0  0  0  0  0  0  0  0  0
    1.0753   -0.4086   -0.1059 C   0  0  0  0  0  0  0  0  0  0  0  0
    0.2328   -1.4795   -0.1294 N   0  0  0  0  0  0  0  0  0  0  0  0
   -1.0930   -1.2247   -0.0179 C   0  0  0  0  0  0  0  0  0  0  0  0
   -1.6184    0.0507    0.1162 C   0  0  0  0  0  0  0  0  0  0  0  0
   -3.4783    0.3157    0.2655 Br  0  0  0  0  0  0  0  0  0  0  0  0
   -0.7456    1.1338    0.1386 C   0  0  0  0  0  0  0  0  0  0  0  0
    0.6277    0.9048    0.0257 C   0  0  0  0  0  0  0  0  0  0  0  0
    1.7927    2.3984    0.0591 Br  0  0  0  0  0  0  0  0  0  0  0  0
   -1.7317   -2.1043   -0.0409 H   0  0  0  0  0  0  0  0  0  0  0  0
   -1.1304    2.1452    0.2428 H   0  0  0  0  0  0  0  0  0  0  0  0
  1  2  3  0
  2  3  1  0
  3  4  2  0
  4  5  1  0
  5  6  2  0
  6  7  1  0
  6  8  1  0
  8  9  2  0
  9 10  1  0
  9  3  1  0
  5 11  1  0
  8 12  1  0
M  END
