
     RDKit          3D

 14 14  0  0  0  0  0  0  0  0999 V2000
   -2.7601   -2.2747   -0.1128 N   0  0  0  0  0  0  0  0  0  0  0  0
   -1.8163   -1.6016   -0.0780 C   0  0  0  0  0  0  0  0  0  0  0  0
   -0.6852   -0.7254   -0.0338 C   0  0  0  0  0  0  0  0  0  0  0  0
    0.6000   -1.2849   -0.0396 C   0  0  0  0  0  0  0  0  0  0  0  0
    1.7197   -0.4555    0.0028 C   0  0  0  0  0  0  0  0  0  0  0  0
    3.4490   -1.2185   -0.0053 Br  0  0  0  0  0  0  0  0  0  0  0  0
    1.5763    0.9284    0.0511 C   0  0  0  0  0  0  0  0  0  0  0  0
    0.2966    1.4876    0.0569 C   0  0  0  0  0  0  0  0  0  0  0  0
    0.1528    3.3799    0.1235 Br  0  0  0  0  0  0  0  0  0  0  0  0
   -0.8400    0.6677    0.0147 C   0  0  0  0  0  0  0  0  0  0  0  0
   -2.0724    1.2697    0.0226 O   0  0  0  0  0  0  0  0  0  0  0  0
    0.7254   -2.3661   -0.0772 H   0  0  0  0  0  0  0  0  0  0  0  0
    2.4542    1.5693    0.0840 H   0  0  0  0  0  0  0  0  0  0  0  0
   -2.7999    0.6242   -0.0088 H   0  0  0  0  0  0  0  0  0  0  0  0
  1  2  3  0
  2  3  1  0
  3  4  2  0
  4  5  1  0
  5  6  1  0
  5  7  2  0
  7  8  1  0
  8  9  1  0
  8 10  2  0
 10 11  1  0
 10  3  1  0
  4 12  1  0
  7 13  1  0
 11 14  1  0
M  END
