
     RDKit          3D

 14 14  0  0  0  0  0  0  0  0999 V2000
   -1.9378    0.4459   -0.0060 C   0  0  0  0  0  0  0  0  0  0  0  0
   -0.4742    0.0939    0.0265 C   0  0  0  0  0  0  0  0  0  0  0  0
   -0.0339   -1.2378    0.1214 C   0  0  0  0  0  0  0  0  0  0  0  0
   -1.2089   -2.7241    0.2180 Br  0  0  0  0  0  0  0  0  0  0  0  0
    1.3341   -1.5042    0.1293 C   0  0  0  0  0  0  0  0  0  0  0  0
    2.2935   -0.5592    0.0364 N   0  0  0  0  0  0  0  0  0  0  0  0
    1.8625    0.7141   -0.0843 C   0  0  0  0  0  0  0  0  0  0  0  0
    2.8138    1.6547   -0.1990 F   0  0  0  0  0  0  0  0  0  0  0  0
    0.5172    1.0871   -0.1027 C   0  0  0  0  0  0  0  0  0  0  0  0
    0.0965    2.9274   -0.3283 Br  0  0  0  0  0  0  0  0  0  0  0  0
   -2.2768    0.5403   -1.0424 H   0  0  0  0  0  0  0  0  0  0  0  0
   -2.5596   -0.2984    0.4983 H   0  0  0  0  0  0  0  0  0  0  0  0
   -2.1382    1.3814    0.5251 H   0  0  0  0  0  0  0  0  0  0  0  0
    1.7118   -2.5212    0.2076 H   0  0  0  0  0  0  0  0  0  0  0  0
  1  2  1  0
  2  3  2  0
  3  4  1  0
  3  5  1  0
  5  6  2  0
  6  7  1  0
  7  8  1  0
  7  9  2  0
  9 10  1  0
  9  2  1  0
  1 11  1  0
  1 12  1  0
  1 13  1  0
  5 14  1  0
M  END
