
     RDKit          3D

 13 13  0  0  0  0  0  0  0  0999 V2000
    3.7064   -0.0356    0.1445 N   0  0  0  0  0  0  0  0  0  0  0  0
    2.5471   -0.0451    0.0980 C   0  0  0  0  0  0  0  0  0  0  0  0
    1.1187   -0.0116    0.0436 C   0  0  0  0  0  0  0  0  0  0  0  0
    0.4422    1.2131    0.0961 C   0  0  0  0  0  0  0  0  0  0  0  0
   -0.9524    1.2343    0.0422 C   0  0  0  0  0  0  0  0  0  0  0  0
   -1.8643    2.8883    0.1131 Br  0  0  0  0  0  0  0  0  0  0  0  0
   -1.6802    0.0494   -0.0634 C   0  0  0  0  0  0  0  0  0  0  0  0
   -1.0001   -1.1678   -0.1152 C   0  0  0  0  0  0  0  0  0  0  0  0
   -1.9893   -2.7737   -0.2584 Br  0  0  0  0  0  0  0  0  0  0  0  0
    0.3938   -1.1978   -0.0620 C   0  0  0  0  0  0  0  0  0  0  0  0
    1.0432   -2.3713   -0.1122 F   0  0  0  0  0  0  0  0  0  0  0  0
    1.0018    2.1437    0.1785 H   0  0  0  0  0  0  0  0  0  0  0  0
   -2.7668    0.0740   -0.1048 H   0  0  0  0  0  0  0  0  0  0  0  0
  1  2  3  0
  2  3  1  0
  3  4  2  0
  4  5  1  0
  5  6  1  0
  5  7  2  0
  7  8  1  0
  8  9  1  0
  8 10  2  0
 10 11  1  0
 10  3  1  0
  4 12  1  0
  7 13  1  0
M  END
