
     RDKit          3D

 14 15  0  0  0  0  0  0  0  0999 V2000
    3.2094    2.2280   -0.2898 Br  0  0  0  0  0  0  0  0  0  0  0  0
    1.8025    0.9573   -0.1733 C   0  0  0  0  0  0  0  0  0  0  0  0
    0.5061    1.4265   -0.0071 C   0  0  0  0  0  0  0  0  0  0  0  0
   -0.4951    0.4495    0.0732 C   0  0  0  0  0  0  0  0  0  0  0  0
   -1.8971    0.4105    0.2333 C   0  0  0  0  0  0  0  0  0  0  0  0
   -2.9780    1.9400    0.4129 Br  0  0  0  0  0  0  0  0  0  0  0  0
   -2.3918   -0.8284    0.2458 N   0  0  0  0  0  0  0  0  0  0  0  0
   -1.3004   -1.5976    0.0925 N   0  0  0  0  0  0  0  0  0  0  0  0
   -0.1332   -0.8906   -0.0166 C   0  0  0  0  0  0  0  0  0  0  0  0
    1.1806   -1.2953   -0.1826 C   0  0  0  0  0  0  0  0  0  0  0  0
    2.1437   -0.3499   -0.2596 N   0  0  0  0  0  0  0  0  0  0  0  0
    0.2820    2.4842    0.0568 H   0  0  0  0  0  0  0  0  0  0  0  0
   -1.4229   -2.6045    0.0704 H   0  0  0  0  0  0  0  0  0  0  0  0
    1.4943   -2.3296   -0.2559 H   0  0  0  0  0  0  0  0  0  0  0  0
  1  2  1  0
  2  3  2  0
  3  4  1  0
  4  5  1  0
  5  6  1  0
  5  7  2  0
  7  8  1  0
  8  9  1  0
  9 10  1  0
 10 11  2  0
 11  2  1  0
  9  4  2  0
  3 12  1  0
  8 13  1  0
 10 14  1  0
M  END
