
     RDKit          3D

 19 19  0  0  0  0  0  0  0  0999 V2000
   -2.5844    0.5384   -0.1197 C   0  0  0  0  0  0  0  0  0  0  0  0
   -1.5411    0.3391   -1.0783 O   0  0  0  0  0  0  0  0  0  0  0  0
   -0.4527   -0.2643   -0.5025 C   0  0  0  0  0  0  0  0  0  0  0  0
   -0.3375   -1.6631   -0.5235 C   0  0  0  0  0  0  0  0  0  0  0  0
   -1.6719   -2.7705   -1.2998 Br  0  0  0  0  0  0  0  0  0  0  0  0
    0.7912   -2.2906    0.0094 C   0  0  0  0  0  0  0  0  0  0  0  0
    1.8194   -1.5186    0.5420 C   0  0  0  0  0  0  0  0  0  0  0  0
    3.3481   -2.3653    1.2632 Br  0  0  0  0  0  0  0  0  0  0  0  0
    1.7382   -0.1281    0.5384 C   0  0  0  0  0  0  0  0  0  0  0  0
    0.6056    0.5084    0.0050 C   0  0  0  0  0  0  0  0  0  0  0  0
    0.5453    1.9919   -0.0035 C   0  0  0  0  0  0  0  0  0  0  0  0
   -0.4430    2.6972    0.0399 O   0  0  0  0  0  0  0  0  0  0  0  0
    1.7766    2.5350   -0.0678 O   0  0  0  0  0  0  0  0  0  0  0  0
   -3.2598    1.3029   -0.5151 H   0  0  0  0  0  0  0  0  0  0  0  0
   -3.1584   -0.3831    0.0161 H   0  0  0  0  0  0  0  0  0  0  0  0
   -2.2079    0.8832    0.8499 H   0  0  0  0  0  0  0  0  0  0  0  0
    0.8728   -3.3749   -0.0027 H   0  0  0  0  0  0  0  0  0  0  0  0
    2.5556    0.4625    0.9472 H   0  0  0  0  0  0  0  0  0  0  0  0
    1.6039    3.5001   -0.0982 H   0  0  0  0  0  0  0  0  0  0  0  0
  1  2  1  0
  2  3  1  0
  3  4  2  0
  4  5  1  0
  4  6  1  0
  6  7  2  0
  7  8  1  0
  7  9  1  0
  9 10  2  0
 10 11  1  0
 11 12  2  0
 11 13  1  0
 10  3  1  0
  1 14  1  0
  1 15  1  0
  1 16  1  0
  6 17  1  0
  9 18  1  0
 13 19  1  0
M  END
