
     RDKit          3D

 16 15  0  0  0  0  0  0  0  0999 V2000
    0.6879    0.0000    0.0000 Cl  0  0  0  0  0  0  0  0  0  0  0  0
    2.3694   -0.0831   -0.0493 N   0  0  0  0  0  0  0  0  0  0  0  0
    0.9671   -0.0851   -0.0227 C   0  0  0  0  0  0  0  0  0  0  0  0
    0.3189    1.1515    0.0167 C   0  0  0  0  0  0  0  0  0  0  0  0
   -1.0622    1.2015    0.0440 C   0  0  0  0  0  0  0  0  0  0  0  0
   -1.9648    2.9011    0.0985 Br  0  0  0  0  0  0  0  0  0  0  0  0
   -1.8575    0.0764    0.0344 C   0  0  0  0  0  0  0  0  0  0  0  0
   -1.2161   -1.1355   -0.0043 C   0  0  0  0  0  0  0  0  0  0  0  0
   -2.1666   -2.7711   -0.0222 Br  0  0  0  0  0  0  0  0  0  0  0  0
    0.1567   -1.2049   -0.0319 C   0  0  0  0  0  0  0  0  0  0  0  0
   -0.6879    0.0000    0.0000 H   0  0  0  0  0  0  0  0  0  0  0  0
    2.9221   -0.7631   -0.6036 H   0  0  0  0  0  0  0  0  0  0  0  0
    2.8877    0.6435    0.5207 H   0  0  0  0  0  0  0  0  0  0  0  0
    0.8333    2.0833    0.0274 H   0  0  0  0  0  0  0  0  0  0  0  0
   -2.9370    0.1160    0.0558 H   0  0  0  0  0  0  0  0  0  0  0  0
    0.7488   -2.1305   -0.0635 H   0  0  0  0  0  0  0  0  0  0  0  0
  2  3  1  0
  3  4  2  0
  4  5  1  0
  5  6  1  0
  5  7  2  0
  7  8  1  0
  8  9  1  0
  8 10  2  0
 10  3  1  0
  1 11  1  0
  2 12  1  0
  2 13  1  0
  4 14  1  0
  7 15  1  0
 10 16  1  0
M  END
