
     RDKit          3D

 15 15  0  0  0  0  0  0  0  0999 V2000
   -2.2845   -0.1529    0.0218 C   0  0  0  0  0  0  0  0  0  0  0  0
   -0.7869   -0.0517    0.0327 C   0  0  0  0  0  0  0  0  0  0  0  0
   -0.1607    1.2008   -0.0399 C   0  0  0  0  0  0  0  0  0  0  0  0
    1.2337    1.2896   -0.0612 C   0  0  0  0  0  0  0  0  0  0  0  0
    2.0495    2.9946   -0.1499 Br  0  0  0  0  0  0  0  0  0  0  0  0
    2.0110    0.1346   -0.0209 C   0  0  0  0  0  0  0  0  0  0  0  0
    3.3508    0.2239   -0.0421 F   0  0  0  0  0  0  0  0  0  0  0  0
    1.3955   -1.1135    0.0365 C   0  0  0  0  0  0  0  0  0  0  0  0
    2.4327   -2.6956    0.0816 Br  0  0  0  0  0  0  0  0  0  0  0  0
    0.0017   -1.2108    0.0581 C   0  0  0  0  0  0  0  0  0  0  0  0
   -2.7383    0.7204    0.5019 H   0  0  0  0  0  0  0  0  0  0  0  0
   -2.6200   -1.0374    0.5734 H   0  0  0  0  0  0  0  0  0  0  0  0
   -2.6471   -0.2193   -1.0086 H   0  0  0  0  0  0  0  0  0  0  0  0
   -0.7633    2.1063   -0.0790 H   0  0  0  0  0  0  0  0  0  0  0  0
   -0.4741   -2.1889    0.0957 H   0  0  0  0  0  0  0  0  0  0  0  0
  1  2  1  0
  2  3  2  0
  3  4  1  0
  4  5  1  0
  4  6  2  0
  6  7  1  0
  6  8  1  0
  8  9  1  0
  8 10  2  0
 10  2  1  0
  1 11  1  0
  1 12  1  0
  1 13  1  0
  3 14  1  0
 10 15  1  0
M  END
