
     RDKit          3D

 11 11  0  0  0  0  0  0  0  0999 V2000
    1.1345    2.9275   -0.0076 Br  0  0  0  0  0  0  0  0  0  0  0  0
    0.3349    1.2202    0.0179 C   0  0  0  0  0  0  0  0  0  0  0  0
   -1.0315    1.0808    0.2189 C   0  0  0  0  0  0  0  0  0  0  0  0
   -1.6673   -0.1155    0.2483 N   0  0  0  0  0  0  0  0  0  0  0  0
   -0.8950   -1.2142    0.0680 C   0  0  0  0  0  0  0  0  0  0  0  0
    0.4766   -1.1640   -0.1388 C   0  0  0  0  0  0  0  0  0  0  0  0
    1.4719   -2.7471   -0.3806 Br  0  0  0  0  0  0  0  0  0  0  0  0
    1.1058    0.0766   -0.1647 C   0  0  0  0  0  0  0  0  0  0  0  0
   -1.6755    1.9434    0.3662 H   0  0  0  0  0  0  0  0  0  0  0  0
   -1.4316   -2.1586    0.0966 H   0  0  0  0  0  0  0  0  0  0  0  0
    2.1773    0.1508   -0.3243 H   0  0  0  0  0  0  0  0  0  0  0  0
  1  2  1  0
  2  3  2  0
  3  4  1  0
  4  5  2  0
  5  6  1  0
  6  7  1  0
  6  8  2  0
  8  2  1  0
  3  9  1  0
  5 10  1  0
  8 11  1  0
M  END
