
     RDKit          3D

 10 10  0  0  0  0  0  0  0  0999 V2000
    2.5187    1.7057    0.0150 Cl  0  0  0  0  0  0  0  0  0  0  0  0
    1.1029    0.7331    0.0069 C   0  0  0  0  0  0  0  0  0  0  0  0
   -0.0419    1.4605   -0.0366 N   0  0  0  0  0  0  0  0  0  0  0  0
   -1.1872    0.7343   -0.0447 C   0  0  0  0  0  0  0  0  0  0  0  0
   -1.1963   -0.6539   -0.0109 C   0  0  0  0  0  0  0  0  0  0  0  0
   -2.8459   -1.5785   -0.0255 Br  0  0  0  0  0  0  0  0  0  0  0  0
   -0.0550   -1.3776    0.0325 N   0  0  0  0  0  0  0  0  0  0  0  0
    1.1015   -0.6617    0.0410 C   0  0  0  0  0  0  0  0  0  0  0  0
    2.7080   -1.6749    0.1019 Br  0  0  0  0  0  0  0  0  0  0  0  0
   -2.1047    1.3129   -0.0795 H   0  0  0  0  0  0  0  0  0  0  0  0
  1  2  1  0
  2  3  2  0
  3  4  1  0
  4  5  2  0
  5  6  1  0
  5  7  1  0
  7  8  2  0
  8  9  1  0
  8  2  1  0
  4 10  1  0
M  END
