
     RDKit          3D

 14 14  0  0  0  0  0  0  0  0999 V2000
   -2.4374   -0.5506   -0.2547 C   0  0  0  0  0  0  0  0  0  0  0  0
   -1.6518    0.2235    0.6453 O   0  0  0  0  0  0  0  0  0  0  0  0
   -0.3037    0.2128    0.3540 C   0  0  0  0  0  0  0  0  0  0  0  0
    0.1330   -0.5016   -0.7149 N   0  0  0  0  0  0  0  0  0  0  0  0
    1.4712   -0.4603   -0.9328 C   0  0  0  0  0  0  0  0  0  0  0  0
    2.3434    0.2586   -0.1263 C   0  0  0  0  0  0  0  0  0  0  0  0
    4.1947    0.2513   -0.5161 Br  0  0  0  0  0  0  0  0  0  0  0  0
    1.9158    0.9710    0.9380 N   0  0  0  0  0  0  0  0  0  0  0  0
    0.5769    0.9372    1.1663 C   0  0  0  0  0  0  0  0  0  0  0  0
   -0.0539    1.9312    2.6584 Br  0  0  0  0  0  0  0  0  0  0  0  0
   -3.4814   -0.4741    0.0643 H   0  0  0  0  0  0  0  0  0  0  0  0
   -2.1554   -1.6086   -0.2188 H   0  0  0  0  0  0  0  0  0  0  0  0
   -2.3723   -0.1594   -1.2759 H   0  0  0  0  0  0  0  0  0  0  0  0
    1.8209   -1.0309   -1.7868 H   0  0  0  0  0  0  0  0  0  0  0  0
  1  2  1  0
  2  3  1  0
  3  4  2  0
  4  5  1  0
  5  6  2  0
  6  7  1  0
  6  8  1  0
  8  9  2  0
  9 10  1  0
  9  3  1  0
  1 11  1  0
  1 12  1  0
  1 13  1  0
  5 14  1  0
M  END
