
     RDKit          3D

 19 19  0  0  0  0  0  0  0  0999 V2000
    3.3920    0.9351   -0.4313 C   0  0  0  0  0  0  0  0  0  0  0  0
    2.0933    1.2820   -0.8994 O   0  0  0  0  0  0  0  0  0  0  0  0
    1.1293    0.3315   -0.6244 C   0  0  0  0  0  0  0  0  0  0  0  0
    1.4954   -0.7797    0.0601 N   0  0  0  0  0  0  0  0  0  0  0  0
    0.5334   -1.7021    0.2925 C   0  0  0  0  0  0  0  0  0  0  0  0
   -0.7873   -1.5602   -0.1027 C   0  0  0  0  0  0  0  0  0  0  0  0
   -2.0069   -2.9626    0.2528 Br  0  0  0  0  0  0  0  0  0  0  0  0
   -1.1523   -0.3875   -0.7673 C   0  0  0  0  0  0  0  0  0  0  0  0
   -2.4452   -0.2186   -1.2012 O   0  0  0  0  0  0  0  0  0  0  0  0
   -3.2286    0.4541   -0.2116 C   0  0  0  0  0  0  0  0  0  0  0  0
   -0.1731    0.5682   -1.0665 C   0  0  0  0  0  0  0  0  0  0  0  0
   -0.5947    2.1273   -2.0708 Br  0  0  0  0  0  0  0  0  0  0  0  0
    3.4093    0.8443    0.6602 H   0  0  0  0  0  0  0  0  0  0  0  0
    3.7553    0.0189   -0.9097 H   0  0  0  0  0  0  0  0  0  0  0  0
    4.0729    1.7461   -0.7076 H   0  0  0  0  0  0  0  0  0  0  0  0
    0.8754   -2.5896    0.8187 H   0  0  0  0  0  0  0  0  0  0  0  0
   -2.8249    1.4455    0.0181 H   0  0  0  0  0  0  0  0  0  0  0  0
   -3.3070   -0.1374    0.7063 H   0  0  0  0  0  0  0  0  0  0  0  0
   -4.2363    0.5846   -0.6170 H   0  0  0  0  0  0  0  0  0  0  0  0
  1  2  1  0
  2  3  1  0
  3  4  2  0
  4  5  1  0
  5  6  2  0
  6  7  1  0
  6  8  1  0
  8  9  1  0
  9 10  1  0
  8 11  2  0
 11 12  1  0
 11  3  1  0
  1 13  1  0
  1 14  1  0
  1 15  1  0
  5 16  1  0
 10 17  1  0
 10 18  1  0
 10 19  1  0
M  END
