
     RDKit          3D

 14 14  0  0  0  0  0  0  0  0999 V2000
   -2.4568    0.4339   -0.3206 C   0  0  0  0  0  0  0  0  0  0  0  0
   -1.6426   -0.7040   -0.0582 O   0  0  0  0  0  0  0  0  0  0  0  0
   -0.2956   -0.4167    0.0137 C   0  0  0  0  0  0  0  0  0  0  0  0
    0.1141    0.8656   -0.1638 N   0  0  0  0  0  0  0  0  0  0  0  0
    1.4533    1.0640   -0.0777 C   0  0  0  0  0  0  0  0  0  0  0  0
    2.3519    0.0358    0.1738 C   0  0  0  0  0  0  0  0  0  0  0  0
    4.2021    0.4180    0.2748 Br  0  0  0  0  0  0  0  0  0  0  0  0
    1.9512   -1.2413    0.3513 N   0  0  0  0  0  0  0  0  0  0  0  0
    0.6117   -1.4523    0.2673 C   0  0  0  0  0  0  0  0  0  0  0  0
    0.0183   -3.2411    0.5130 Br  0  0  0  0  0  0  0  0  0  0  0  0
   -3.4975    0.0973   -0.3571 H   0  0  0  0  0  0  0  0  0  0  0  0
   -2.3748    1.1743    0.4826 H   0  0  0  0  0  0  0  0  0  0  0  0
   -2.2168    0.8781   -1.2928 H   0  0  0  0  0  0  0  0  0  0  0  0
    1.7815    2.0883   -0.2194 H   0  0  0  0  0  0  0  0  0  0  0  0
  1  2  1  0
  2  3  1  0
  3  4  2  0
  4  5  1  0
  5  6  2  0
  6  7  1  0
  6  8  1  0
  8  9  2  0
  9 10  1  0
  9  3  1  0
  1 11  1  0
  1 12  1  0
  1 13  1  0
  5 14  1  0
M  END
