
     RDKit          3D

 14 14  0  0  0  0  0  0  0  0999 V2000
    2.2300   -0.4144   -0.2090 C   0  0  0  0  0  0  0  0  0  0  0  0
    0.7472   -0.1914   -0.1340 C   0  0  0  0  0  0  0  0  0  0  0  0
    0.0058   -0.8660   -1.0524 N   0  0  0  0  0  0  0  0  0  0  0  0
   -1.3364   -0.6956   -1.0227 C   0  0  0  0  0  0  0  0  0  0  0  0
   -2.0494   -1.3705   -1.9376 F   0  0  0  0  0  0  0  0  0  0  0  0
   -1.9864    0.1236   -0.1123 C   0  0  0  0  0  0  0  0  0  0  0  0
   -3.8637    0.3187   -0.1233 Br  0  0  0  0  0  0  0  0  0  0  0  0
   -1.2216    0.8107    0.8244 C   0  0  0  0  0  0  0  0  0  0  0  0
    0.1651    0.6534    0.8165 C   0  0  0  0  0  0  0  0  0  0  0  0
    1.1804    1.6020    2.1043 Br  0  0  0  0  0  0  0  0  0  0  0  0
    2.6010   -0.8506    0.7235 H   0  0  0  0  0  0  0  0  0  0  0  0
    2.7508    0.5270   -0.4093 H   0  0  0  0  0  0  0  0  0  0  0  0
    2.4762   -1.1081   -1.0202 H   0  0  0  0  0  0  0  0  0  0  0  0
   -1.6992    1.4611    1.5522 H   0  0  0  0  0  0  0  0  0  0  0  0
  1  2  1  0
  2  3  2  0
  3  4  1  0
  4  5  1  0
  4  6  2  0
  6  7  1  0
  6  8  1  0
  8  9  2  0
  9 10  1  0
  9  2  1  0
  1 11  1  0
  1 12  1  0
  1 13  1  0
  8 14  1  0
M  END
