
     RDKit          3D

 23 24  0  0  0  0  0  0  0  0999 V2000
   -5.1962    2.1500   -1.2435 Br  0  0  0  0  0  0  0  0  0  0  0  0
   -3.9949    0.8106   -0.6809 C   0  0  0  0  0  0  0  0  0  0  0  0
   -4.3801   -0.2367    0.1101 N   0  0  0  0  0  0  0  0  0  0  0  0
   -3.2680   -0.9174    0.2654 C   0  0  0  0  0  0  0  0  0  0  0  0
   -3.1476   -2.5081    1.3065 Br  0  0  0  0  0  0  0  0  0  0  0  0
   -2.2594   -0.2965   -0.4132 N   0  0  0  0  0  0  0  0  0  0  0  0
   -0.8689   -0.6840   -0.5246 C   0  0  0  0  0  0  0  0  0  0  0  0
   -0.0169   -0.0520    0.5680 C   0  0  0  0  0  0  0  0  0  0  0  0
    1.4219   -0.5429    0.5039 C   0  0  0  0  0  0  0  0  0  0  0  0
    2.1804    0.0966    1.5374 O   0  0  0  0  0  0  0  0  0  0  0  0
    3.4007    0.4721    0.9001 C   0  0  0  0  0  0  0  0  0  0  0  0
    2.9731    0.7584   -0.5134 C   0  0  0  0  0  0  0  0  0  0  0  0
    1.9965   -0.2509   -0.7751 O   0  0  0  0  0  0  0  0  0  0  0  0
   -2.7027    0.8183   -1.0250 N   0  0  0  0  0  0  0  0  0  0  0  0
   -0.8188   -1.7771   -0.4851 H   0  0  0  0  0  0  0  0  0  0  0  0
   -0.5277   -0.3798   -1.5211 H   0  0  0  0  0  0  0  0  0  0  0  0
   -0.0394    1.0407    0.4617 H   0  0  0  0  0  0  0  0  0  0  0  0
   -0.4316   -0.2630    1.5616 H   0  0  0  0  0  0  0  0  0  0  0  0
    1.4679   -1.6267    0.6598 H   0  0  0  0  0  0  0  0  0  0  0  0
    4.0871   -0.3803    0.9495 H   0  0  0  0  0  0  0  0  0  0  0  0
    3.8519    1.3320    1.4009 H   0  0  0  0  0  0  0  0  0  0  0  0
    2.4815    1.7339   -0.5955 H   0  0  0  0  0  0  0  0  0  0  0  0
    3.7911    0.7025   -1.2356 H   0  0  0  0  0  0  0  0  0  0  0  0
  1  2  1  0
  2  3  1  0
  3  4  2  0
  4  5  1  0
  4  6  1  0
  6  7  1  0
  7  8  1  0
  8  9  1  0
  9 10  1  0
 10 11  1  0
 11 12  1  0
 12 13  1  0
  6 14  1  0
 14  2  2  0
 13  9  1  0
  7 15  1  0
  7 16  1  0
  8 17  1  0
  8 18  1  0
  9 19  1  0
 11 20  1  0
 11 21  1  0
 12 22  1  0
 12 23  1  0
M  END
