
     RDKit          3D

 31 32  0  0  0  0  0  0  0  0999 V2000
   -6.0018    0.1317   -0.0889 C   0  0  0  0  0  0  0  0  0  0  0  0
   -5.0941    1.1509    0.3118 O   0  0  0  0  0  0  0  0  0  0  0  0
   -3.7623    0.8522    0.2426 C   0  0  0  0  0  0  0  0  0  0  0  0
   -3.2099   -0.3486   -0.1977 C   0  0  0  0  0  0  0  0  0  0  0  0
   -1.8184   -0.5245   -0.2184 C   0  0  0  0  0  0  0  0  0  0  0  0
   -0.9643    0.4950    0.2032 C   0  0  0  0  0  0  0  0  0  0  0  0
    0.4439    0.3980    0.2054 N   0  0  0  0  0  0  0  0  0  0  0  0
    1.2043   -0.7176   -0.0909 C   0  0  0  0  0  0  0  0  0  0  0  0
    0.7909   -1.8509   -0.3183 O   0  0  0  0  0  0  0  0  0  0  0  0
    2.6832   -0.5270   -0.0686 C   0  0  0  0  0  0  0  0  0  0  0  0
    3.2544    0.7056   -0.4187 C   0  0  0  0  0  0  0  0  0  0  0  0
    4.6397    0.8642   -0.3756 C   0  0  0  0  0  0  0  0  0  0  0  0
    5.4008    2.5317   -0.8409 Br  0  0  0  0  0  0  0  0  0  0  0  0
    5.4684   -0.1892    0.0018 C   0  0  0  0  0  0  0  0  0  0  0  0
    4.9058   -1.4253    0.3244 C   0  0  0  0  0  0  0  0  0  0  0  0
    6.0759   -2.8386    0.8105 Br  0  0  0  0  0  0  0  0  0  0  0  0
    3.5182   -1.6049    0.2788 C   0  0  0  0  0  0  0  0  0  0  0  0
    3.0075   -2.8427    0.5814 O   0  0  0  0  0  0  0  0  0  0  0  0
   -1.5234    1.7009    0.6393 C   0  0  0  0  0  0  0  0  0  0  0  0
   -2.9107    1.8751    0.6592 C   0  0  0  0  0  0  0  0  0  0  0  0
   -7.0169    0.5220    0.0321 H   0  0  0  0  0  0  0  0  0  0  0  0
   -5.9075   -0.7541    0.5479 H   0  0  0  0  0  0  0  0  0  0  0  0
   -5.8670   -0.1235   -1.1452 H   0  0  0  0  0  0  0  0  0  0  0  0
   -3.8277   -1.1741   -0.5356 H   0  0  0  0  0  0  0  0  0  0  0  0
   -1.4377   -1.4754   -0.5779 H   0  0  0  0  0  0  0  0  0  0  0  0
    0.9283    1.2206    0.5399 H   0  0  0  0  0  0  0  0  0  0  0  0
    2.6361    1.5342   -0.7529 H   0  0  0  0  0  0  0  0  0  0  0  0
    6.5469   -0.0545    0.0336 H   0  0  0  0  0  0  0  0  0  0  0  0
    2.0647   -2.8708    0.3012 H   0  0  0  0  0  0  0  0  0  0  0  0
   -0.8962    2.5228    0.9731 H   0  0  0  0  0  0  0  0  0  0  0  0
   -3.3312    2.8169    1.0034 H   0  0  0  0  0  0  0  0  0  0  0  0
  1  2  1  0
  2  3  1  0
  3  4  2  0
  4  5  1  0
  5  6  2  0
  6  7  1  0
  7  8  1  0
  8  9  2  0
  8 10  1  0
 10 11  2  0
 11 12  1  0
 12 13  1  0
 12 14  2  0
 14 15  1  0
 15 16  1  0
 15 17  2  0
 17 18  1  0
  6 19  1  0
 19 20  2  0
 20  3  1  0
 17 10  1  0
  1 21  1  0
  1 22  1  0
  1 23  1  0
  4 24  1  0
  5 25  1  0
  7 26  1  0
 11 27  1  0
 14 28  1  0
 18 29  1  0
 19 30  1  0
 20 31  1  0
M  END
