
     RDKit          3D

 10 10  0  0  0  0  0  0  0  0999 V2000
   -2.3206    1.5885    0.6463 Br  0  0  0  0  0  0  0  0  0  0  0  0
   -0.9102    0.4243    0.1838 C   0  0  0  0  0  0  0  0  0  0  0  0
   -1.1748   -0.8581   -0.2552 C   0  0  0  0  0  0  0  0  0  0  0  0
   -0.1893   -1.7129   -0.5928 N   0  0  0  0  0  0  0  0  0  0  0  0
    1.1108   -1.3023   -0.4992 N   0  0  0  0  0  0  0  0  0  0  0  0
    1.3936   -0.0524   -0.0723 C   0  0  0  0  0  0  0  0  0  0  0  0
    3.2100    0.4685    0.0399 Br  0  0  0  0  0  0  0  0  0  0  0  0
    0.4069    0.8470    0.2810 C   0  0  0  0  0  0  0  0  0  0  0  0
   -2.1812   -1.2481   -0.3529 H   0  0  0  0  0  0  0  0  0  0  0  0
    0.6548    1.8456    0.6212 H   0  0  0  0  0  0  0  0  0  0  0  0
  1  2  1  0
  2  3  2  0
  3  4  1  0
  4  5  2  0
  5  6  1  0
  6  7  1  0
  6  8  2  0
  8  2  1  0
  3  9  1  0
  8 10  1  0
M  END
