
     RDKit          3D

 15 16  0  0  0  0  0  0  0  0999 V2000
    3.5168    1.4383    0.3657 Br  0  0  0  0  0  0  0  0  0  0  0  0
    1.8499    0.5632    0.1672 C   0  0  0  0  0  0  0  0  0  0  0  0
    1.8203   -0.8197   -0.0141 C   0  0  0  0  0  0  0  0  0  0  0  0
    0.6058   -1.4980   -0.1640 C   0  0  0  0  0  0  0  0  0  0  0  0
   -0.5616   -0.7288   -0.1233 C   0  0  0  0  0  0  0  0  0  0  0  0
   -1.8836   -1.0774   -0.2358 N   0  0  0  0  0  0  0  0  0  0  0  0
   -2.7357   -0.0425   -0.1445 N   0  0  0  0  0  0  0  0  0  0  0  0
   -1.9262    1.0027    0.0325 C   0  0  0  0  0  0  0  0  0  0  0  0
   -2.5661    2.7615    0.2286 Br  0  0  0  0  0  0  0  0  0  0  0  0
   -0.5577    0.6525    0.0565 C   0  0  0  0  0  0  0  0  0  0  0  0
    0.6734    1.3195    0.2057 C   0  0  0  0  0  0  0  0  0  0  0  0
    2.7480   -1.3878   -0.0408 H   0  0  0  0  0  0  0  0  0  0  0  0
    0.5800   -2.5739   -0.3051 H   0  0  0  0  0  0  0  0  0  0  0  0
   -2.2682   -2.0050   -0.3759 H   0  0  0  0  0  0  0  0  0  0  0  0
    0.7051    2.3956    0.3472 H   0  0  0  0  0  0  0  0  0  0  0  0
  1  2  1  0
  2  3  2  0
  3  4  1  0
  4  5  2  0
  5  6  1  0
  6  7  1  0
  7  8  2  0
  8  9  1  0
  8 10  1  0
 10 11  2  0
 11  2  1  0
 10  5  1  0
  3 12  1  0
  4 13  1  0
  6 14  1  0
 11 15  1  0
M  END
