
     RDKit          3D

 12 12  0  0  0  0  0  0  0  0999 V2000
   -2.4199   -0.8844   -0.0028 O   0  0  0  0  0  0  0  0  0  0  0  0
   -1.1395   -0.4381    0.0164 C   0  0  0  0  0  0  0  0  0  0  0  0
   -0.3515   -1.1562    0.8400 N   0  0  0  0  0  0  0  0  0  0  0  0
    0.9438   -0.7632    0.9072 C   0  0  0  0  0  0  0  0  0  0  0  0
    1.4640    0.3061    0.1890 C   0  0  0  0  0  0  0  0  0  0  0  0
    3.2823    0.7778    0.3487 Br  0  0  0  0  0  0  0  0  0  0  0  0
    0.6188    1.0243   -0.6520 C   0  0  0  0  0  0  0  0  0  0  0  0
   -0.7180    0.6450   -0.7429 C   0  0  0  0  0  0  0  0  0  0  0  0
   -1.8862    1.6026   -1.8765 Br  0  0  0  0  0  0  0  0  0  0  0  0
   -2.3543   -1.6269    0.6241 H   0  0  0  0  0  0  0  0  0  0  0  0
    1.5660   -1.3524    1.5758 H   0  0  0  0  0  0  0  0  0  0  0  0
    0.9946    1.8654   -1.2271 H   0  0  0  0  0  0  0  0  0  0  0  0
  1  2  1  0
  2  3  2  0
  3  4  1  0
  4  5  2  0
  5  6  1  0
  5  7  1  0
  7  8  2  0
  8  9  1  0
  8  2  1  0
  1 10  1  0
  4 11  1  0
  7 12  1  0
M  END
