
     RDKit          3D

 16 16  0  0  0  0  0  0  0  0999 V2000
    3.8616    0.0742   -0.4235 F   0  0  0  0  0  0  0  0  0  0  0  0
    2.6227   -0.1275    0.0726 C   0  0  0  0  0  0  0  0  0  0  0  0
    2.3742    0.8173    1.0040 F   0  0  0  0  0  0  0  0  0  0  0  0
    2.5945   -1.3445    0.6581 F   0  0  0  0  0  0  0  0  0  0  0  0
    1.6829   -0.0711   -0.9971 O   0  0  0  0  0  0  0  0  0  0  0  0
    0.3960   -0.0166   -0.5248 C   0  0  0  0  0  0  0  0  0  0  0  0
   -0.2287   -1.2024   -0.1290 C   0  0  0  0  0  0  0  0  0  0  0  0
   -1.5491   -1.1660    0.3114 C   0  0  0  0  0  0  0  0  0  0  0  0
   -2.3956   -2.7633    0.8631 Br  0  0  0  0  0  0  0  0  0  0  0  0
   -2.2543    0.0358    0.3443 C   0  0  0  0  0  0  0  0  0  0  0  0
   -1.6357    1.2184   -0.0783 C   0  0  0  0  0  0  0  0  0  0  0  0
   -2.6767    2.8078   -0.0170 Br  0  0  0  0  0  0  0  0  0  0  0  0
   -0.3073    1.1992   -0.5252 C   0  0  0  0  0  0  0  0  0  0  0  0
    0.4904    2.6338   -1.0787 Cl  0  0  0  0  0  0  0  0  0  0  0  0
    0.3107   -2.1461   -0.1700 H   0  0  0  0  0  0  0  0  0  0  0  0
   -3.2857    0.0509    0.6903 H   0  0  0  0  0  0  0  0  0  0  0  0
  1  2  1  0
  2  3  1  0
  2  4  1  0
  2  5  1  0
  5  6  1  0
  6  7  2  0
  7  8  1  0
  8  9  1  0
  8 10  2  0
 10 11  1  0
 11 12  1  0
 11 13  2  0
 13 14  1  0
 13  6  1  0
  7 15  1  0
 10 16  1  0
M  END
