
     RDKit          3D

 18 18  0  0  0  0  0  0  0  0999 V2000
   -0.8601   -1.9992    0.1149 C   0  0  0  0  0  0  0  0  0  0  0  0
    0.0098   -0.7730    0.0252 C   0  0  0  0  0  0  0  0  0  0  0  0
    1.4031   -0.9498   -0.0470 C   0  0  0  0  0  0  0  0  0  0  0  0
    2.2549    0.1482   -0.1314 C   0  0  0  0  0  0  0  0  0  0  0  0
    4.1241   -0.1192   -0.2272 Br  0  0  0  0  0  0  0  0  0  0  0  0
    1.7410    1.4378   -0.1456 C   0  0  0  0  0  0  0  0  0  0  0  0
    0.3588    1.6295   -0.0745 C   0  0  0  0  0  0  0  0  0  0  0  0
   -0.2564    3.4314   -0.1001 Br  0  0  0  0  0  0  0  0  0  0  0  0
   -0.5295    0.5354    0.0118 C   0  0  0  0  0  0  0  0  0  0  0  0
   -2.0177    0.7717    0.0874 C   0  0  0  0  0  0  0  0  0  0  0  0
   -1.5377   -2.0480   -0.7433 H   0  0  0  0  0  0  0  0  0  0  0  0
   -1.4374   -1.9884    1.0448 H   0  0  0  0  0  0  0  0  0  0  0  0
   -0.2643   -2.9184    0.1122 H   0  0  0  0  0  0  0  0  0  0  0  0
    1.8238   -1.9536   -0.0371 H   0  0  0  0  0  0  0  0  0  0  0  0
    2.4114    2.2905   -0.2116 H   0  0  0  0  0  0  0  0  0  0  0  0
   -2.5975   -0.1522    0.1508 H   0  0  0  0  0  0  0  0  0  0  0  0
   -2.3632    1.2989   -0.8080 H   0  0  0  0  0  0  0  0  0  0  0  0
   -2.2630    1.3586    0.9787 H   0  0  0  0  0  0  0  0  0  0  0  0
  1  2  1  0
  2  3  2  0
  3  4  1  0
  4  5  1  0
  4  6  2  0
  6  7  1  0
  7  8  1  0
  7  9  2  0
  9 10  1  0
  9  2  1  0
  1 11  1  0
  1 12  1  0
  1 13  1  0
  3 14  1  0
  6 15  1  0
 10 16  1  0
 10 17  1  0
 10 18  1  0
M  END
