
     RDKit          3D

 15 15  0  0  0  0  0  0  0  0999 V2000
    2.5363   -1.9555   -0.3826 O   0  0  0  0  0  0  0  0  0  0  0  0
    2.3818   -0.5364   -0.1442 S   0  0  0  0  0  0  0  0  0  0  0  0
    3.0496    0.4728   -0.9377 O   0  0  0  0  0  0  0  0  0  0  0  0
    2.9571   -0.2162    1.7885 Cl  0  0  0  0  0  0  0  0  0  0  0  0
    0.6558   -0.1536   -0.0655 C   0  0  0  0  0  0  0  0  0  0  0  0
    0.2273    1.1526   -0.3224 C   0  0  0  0  0  0  0  0  0  0  0  0
   -1.1359    1.4379   -0.2796 C   0  0  0  0  0  0  0  0  0  0  0  0
   -1.7320    3.2002   -0.6141 Br  0  0  0  0  0  0  0  0  0  0  0  0
   -2.0656    0.4380    0.0061 C   0  0  0  0  0  0  0  0  0  0  0  0
   -1.6222   -0.8624    0.2463 C   0  0  0  0  0  0  0  0  0  0  0  0
   -2.8784   -2.2231    0.6256 Br  0  0  0  0  0  0  0  0  0  0  0  0
   -0.2638   -1.1709    0.2087 C   0  0  0  0  0  0  0  0  0  0  0  0
    0.9451    1.9374   -0.5547 H   0  0  0  0  0  0  0  0  0  0  0  0
   -3.1276    0.6695    0.0367 H   0  0  0  0  0  0  0  0  0  0  0  0
    0.0725   -2.1904    0.3889 H   0  0  0  0  0  0  0  0  0  0  0  0
  1  2  2  0
  2  3  2  0
  2  4  1  0
  2  5  1  0
  5  6  2  0
  6  7  1  0
  7  8  1  0
  7  9  2  0
  9 10  1  0
 10 11  1  0
 10 12  2  0
 12  5  1  0
  6 13  1  0
  9 14  1  0
 12 15  1  0
M  END
