
     RDKit          3D

 13 13  0  0  0  0  0  0  0  0999 V2000
   -2.3956   -0.8129    0.0871 C   0  0  0  0  0  0  0  0  0  0  0  0
   -1.5671    0.2160   -0.4369 O   0  0  0  0  0  0  0  0  0  0  0  0
   -0.2517    0.1788   -0.1654 C   0  0  0  0  0  0  0  0  0  0  0  0
    0.5362   -1.0317    0.7821 S   0  0  0  0  0  0  0  0  0  0  0  0
    2.0511   -0.3052    0.5867 C   0  0  0  0  0  0  0  0  0  0  0  0
    3.6536   -1.0102    1.3533 Br  0  0  0  0  0  0  0  0  0  0  0  0
    2.0158    0.8338   -0.1722 C   0  0  0  0  0  0  0  0  0  0  0  0
    0.6880    1.0980   -0.5960 C   0  0  0  0  0  0  0  0  0  0  0  0
    0.3034    2.6110   -1.6676 Br  0  0  0  0  0  0  0  0  0  0  0  0
   -2.1075   -1.7930   -0.3071 H   0  0  0  0  0  0  0  0  0  0  0  0
   -2.3871   -0.8094    1.1820 H   0  0  0  0  0  0  0  0  0  0  0  0
   -3.4215   -0.6133   -0.2373 H   0  0  0  0  0  0  0  0  0  0  0  0
    2.8826    1.4379   -0.4085 H   0  0  0  0  0  0  0  0  0  0  0  0
  1  2  1  0
  2  3  1  0
  3  4  1  0
  4  5  1  0
  5  6  1  0
  5  7  2  0
  7  8  1  0
  8  9  1  0
  8  3  2  0
  1 10  1  0
  1 11  1  0
  1 12  1  0
  7 13  1  0
M  END
