
     RDKit          3D

 19 19  0  0  0  0  0  0  0  0999 V2000
    2.3438   -1.3799   -0.4593 C   0  0  0  0  0  0  0  0  0  0  0  0
    2.3091    0.0419   -0.5155 O   0  0  0  0  0  0  0  0  0  0  0  0
    1.0618    0.5778   -0.2621 C   0  0  0  0  0  0  0  0  0  0  0  0
    0.0341   -0.2634    0.0043 N   0  0  0  0  0  0  0  0  0  0  0  0
   -1.1751    0.2963    0.2480 C   0  0  0  0  0  0  0  0  0  0  0  0
   -2.2457   -0.5315    0.5233 O   0  0  0  0  0  0  0  0  0  0  0  0
   -1.9168   -1.9162    0.5124 C   0  0  0  0  0  0  0  0  0  0  0  0
   -1.3974    1.6724    0.2356 C   0  0  0  0  0  0  0  0  0  0  0  0
   -3.0971    2.4319    0.5795 Br  0  0  0  0  0  0  0  0  0  0  0  0
   -0.3263    2.5188   -0.0406 C   0  0  0  0  0  0  0  0  0  0  0  0
    0.9262    1.9649   -0.2943 C   0  0  0  0  0  0  0  0  0  0  0  0
    2.3777    3.1210   -0.6691 Br  0  0  0  0  0  0  0  0  0  0  0  0
    1.6930   -1.8233   -1.2209 H   0  0  0  0  0  0  0  0  0  0  0  0
    2.0848   -1.7441    0.5410 H   0  0  0  0  0  0  0  0  0  0  0  0
    3.3691   -1.6968   -0.6731 H   0  0  0  0  0  0  0  0  0  0  0  0
   -1.1776   -2.1548    1.2850 H   0  0  0  0  0  0  0  0  0  0  0  0
   -1.5694   -2.2340   -0.4768 H   0  0  0  0  0  0  0  0  0  0  0  0
   -2.8284   -2.4769    0.7404 H   0  0  0  0  0  0  0  0  0  0  0  0
   -0.4659    3.5960   -0.0580 H   0  0  0  0  0  0  0  0  0  0  0  0
  1  2  1  0
  2  3  1  0
  3  4  2  0
  4  5  1  0
  5  6  1  0
  6  7  1  0
  5  8  2  0
  8  9  1  0
  8 10  1  0
 10 11  2  0
 11 12  1  0
 11  3  1  0
  1 13  1  0
  1 14  1  0
  1 15  1  0
  7 16  1  0
  7 17  1  0
  7 18  1  0
 10 19  1  0
M  END
