
     RDKit          3D

 17 17  0  0  0  0  0  0  0  0999 V2000
    2.7437   -0.1414   -0.2244 C   0  0  0  0  0  0  0  0  0  0  0  0
    1.2513   -0.0610   -0.0766 C   0  0  0  0  0  0  0  0  0  0  0  0
    0.5939    1.1719   -0.1974 C   0  0  0  0  0  0  0  0  0  0  0  0
   -0.7988    1.2497   -0.0917 C   0  0  0  0  0  0  0  0  0  0  0  0
   -1.5938    2.9661   -0.2589 Br  0  0  0  0  0  0  0  0  0  0  0  0
   -1.5294    0.0789    0.1257 C   0  0  0  0  0  0  0  0  0  0  0  0
   -2.9621    0.1517    0.2352 N   0  0  0  0  0  4  0  0  0  0  0  0
   -3.4293    0.3239    1.3685 O   0  0  0  0  0  0  0  0  0  0  0  0
   -3.6108    0.0362   -0.8127 O   0  0  0  0  0  1  0  0  0  0  0  0
   -0.8964   -1.1618    0.2344 C   0  0  0  0  0  0  0  0  0  0  0  0
   -1.8269   -2.7923    0.5199 Br  0  0  0  0  0  0  0  0  0  0  0  0
    0.4969   -1.2256    0.1269 C   0  0  0  0  0  0  0  0  0  0  0  0
    3.0072   -0.2942   -1.2754 H   0  0  0  0  0  0  0  0  0  0  0  0
    3.2212    0.7777    0.1311 H   0  0  0  0  0  0  0  0  0  0  0  0
    3.1506   -0.9681    0.3673 H   0  0  0  0  0  0  0  0  0  0  0  0
    1.1776    2.0748   -0.3742 H   0  0  0  0  0  0  0  0  0  0  0  0
    1.0051   -2.1864    0.2021 H   0  0  0  0  0  0  0  0  0  0  0  0
  1  2  1  0
  2  3  2  0
  3  4  1  0
  4  5  1  0
  4  6  2  0
  6  7  1  0
  7  8  2  0
  7  9  1  0
  6 10  1  0
 10 11  1  0
 10 12  2  0
 12  2  1  0
  1 13  1  0
  1 14  1  0
  1 15  1  0
  3 16  1  0
 12 17  1  0
M  CHG  2   7   1   9  -1
M  END
