
     RDKit          3D

 21 22  0  0  0  0  0  0  0  0999 V2000
   -3.2078    0.3375    2.6828 Br  0  0  0  0  0  0  0  0  0  0  0  0
   -2.3746    0.4062    0.9874 C   0  0  0  0  0  0  0  0  0  0  0  0
   -2.9015    1.2249   -0.0082 C   0  0  0  0  0  0  0  0  0  0  0  0
   -2.2875    1.2722   -1.2590 C   0  0  0  0  0  0  0  0  0  0  0  0
   -1.1486    0.5041   -1.5109 C   0  0  0  0  0  0  0  0  0  0  0  0
   -0.6068   -0.3178   -0.5109 C   0  0  0  0  0  0  0  0  0  0  0  0
    0.6239   -1.1480   -0.7817 C   0  0  0  0  0  0  0  0  0  0  0  0
    1.7489   -0.7303    0.0349 N   0  0  0  0  0  0  0  0  0  0  0  0
    2.0920   -1.4313    1.1372 N   0  0  0  0  0  0  0  0  0  0  0  0
    3.1563   -0.7434    1.5644 C   0  0  0  0  0  0  0  0  0  0  0  0
    4.1085   -1.2242    3.1186 Br  0  0  0  0  0  0  0  0  0  0  0  0
    3.5094    0.3247    0.7875 N   0  0  0  0  0  0  0  0  0  0  0  0
    2.6090    0.3106   -0.1685 C   0  0  0  0  0  0  0  0  0  0  0  0
    2.5756    1.5753   -1.5923 Br  0  0  0  0  0  0  0  0  0  0  0  0
   -1.2372   -0.3639    0.7438 C   0  0  0  0  0  0  0  0  0  0  0  0
   -3.7871    1.8266    0.1791 H   0  0  0  0  0  0  0  0  0  0  0  0
   -2.6977    1.9092   -2.0393 H   0  0  0  0  0  0  0  0  0  0  0  0
   -0.6904    0.5576   -2.4970 H   0  0  0  0  0  0  0  0  0  0  0  0
    0.4174   -2.2039   -0.5698 H   0  0  0  0  0  0  0  0  0  0  0  0
    0.9346   -1.0865   -1.8306 H   0  0  0  0  0  0  0  0  0  0  0  0
   -0.8364   -0.9997    1.5325 H   0  0  0  0  0  0  0  0  0  0  0  0
  1  2  1  0
  2  3  2  0
  3  4  1  0
  4  5  2  0
  5  6  1  0
  6  7  1  0
  7  8  1  0
  8  9  1  0
  9 10  2  0
 10 11  1  0
 10 12  1  0
 12 13  2  0
 13 14  1  0
  6 15  2  0
 15  2  1  0
 13  8  1  0
  3 16  1  0
  4 17  1  0
  5 18  1  0
  7 19  1  0
  7 20  1  0
 15 21  1  0
M  END
