
     RDKit          3D

 16 16  0  0  0  0  0  0  0  0999 V2000
   -2.4294    0.1801    0.3212 C   0  0  0  0  0  0  0  0  0  0  0  0
   -0.9419    0.0307    0.1328 C   0  0  0  0  0  0  0  0  0  0  0  0
   -0.0486    1.0559    0.5088 C   0  0  0  0  0  0  0  0  0  0  0  0
   -0.6385    2.6985    1.2722 Br  0  0  0  0  0  0  0  0  0  0  0  0
    1.3336    0.9248    0.3203 C   0  0  0  0  0  0  0  0  0  0  0  0
    1.8377   -0.2268   -0.2652 C   0  0  0  0  0  0  0  0  0  0  0  0
    3.1745   -0.3975   -0.4690 O   0  0  0  0  0  0  0  0  0  0  0  0
    0.9867   -1.2410   -0.6754 C   0  0  0  0  0  0  0  0  0  0  0  0
   -0.3938   -1.1109   -0.4877 C   0  0  0  0  0  0  0  0  0  0  0  0
   -1.4700   -2.5411   -1.1375 Br  0  0  0  0  0  0  0  0  0  0  0  0
   -2.9214   -0.7816    0.4917 H   0  0  0  0  0  0  0  0  0  0  0  0
   -2.6746    0.7735    1.2065 H   0  0  0  0  0  0  0  0  0  0  0  0
   -2.8720    0.6553   -0.5597 H   0  0  0  0  0  0  0  0  0  0  0  0
    2.0018    1.7248    0.6249 H   0  0  0  0  0  0  0  0  0  0  0  0
    3.6507    0.3818   -0.1368 H   0  0  0  0  0  0  0  0  0  0  0  0
    1.4052   -2.1266   -1.1471 H   0  0  0  0  0  0  0  0  0  0  0  0
  1  2  1  0
  2  3  2  0
  3  4  1  0
  3  5  1  0
  5  6  2  0
  6  7  1  0
  6  8  1  0
  8  9  2  0
  9 10  1  0
  9  2  1  0
  1 11  1  0
  1 12  1  0
  1 13  1  0
  5 14  1  0
  7 15  1  0
  8 16  1  0
M  END
