
     RDKit          3D

 16 16  0  0  0  0  0  0  0  0999 V2000
    2.2501   -1.6653   -0.7004 O   0  0  0  0  0  0  0  0  0  0  0  0
    1.8649   -0.5085   -0.6848 C   0  0  0  0  0  0  0  0  0  0  0  0
    2.6362    0.5024   -1.1141 O   0  0  0  0  0  0  0  0  0  0  0  0
    0.5322   -0.0816   -0.2030 C   0  0  0  0  0  0  0  0  0  0  0  0
    0.1665    1.2723   -0.2187 C   0  0  0  0  0  0  0  0  0  0  0  0
   -1.0932    1.6553    0.2391 C   0  0  0  0  0  0  0  0  0  0  0  0
   -1.5806    3.4821    0.2154 Br  0  0  0  0  0  0  0  0  0  0  0  0
   -1.9968    0.7079    0.7137 C   0  0  0  0  0  0  0  0  0  0  0  0
   -1.6354   -0.6408    0.7305 C   0  0  0  0  0  0  0  0  0  0  0  0
   -2.9020   -1.8940    1.3867 Br  0  0  0  0  0  0  0  0  0  0  0  0
   -0.3740   -1.0442    0.2744 C   0  0  0  0  0  0  0  0  0  0  0  0
   -0.0656   -2.3816    0.3111 O   0  0  0  0  0  0  0  0  0  0  0  0
    3.4740    0.0786   -1.3983 H   0  0  0  0  0  0  0  0  0  0  0  0
    0.8589    2.0265   -0.5858 H   0  0  0  0  0  0  0  0  0  0  0  0
   -2.9772    1.0161    1.0688 H   0  0  0  0  0  0  0  0  0  0  0  0
    0.8419   -2.5252   -0.0346 H   0  0  0  0  0  0  0  0  0  0  0  0
  1  2  2  0
  2  3  1  0
  2  4  1  0
  4  5  2  0
  5  6  1  0
  6  7  1  0
  6  8  2  0
  8  9  1  0
  9 10  1  0
  9 11  2  0
 11 12  1  0
 11  4  1  0
  3 13  1  0
  5 14  1  0
  8 15  1  0
 12 16  1  0
M  END
