
     RDKit          3D

 15 15  0  0  0  0  0  0  0  0999 V2000
   -2.5140    0.1857   -0.9841 C   0  0  0  0  0  0  0  0  0  0  0  0
   -1.8863   -0.2265    0.2250 O   0  0  0  0  0  0  0  0  0  0  0  0
   -0.5105   -0.1144    0.2007 C   0  0  0  0  0  0  0  0  0  0  0  0
    0.0869    0.3567   -0.9221 N   0  0  0  0  0  0  0  0  0  0  0  0
    1.4379    0.4504   -0.9027 C   0  0  0  0  0  0  0  0  0  0  0  0
    2.2186    0.0951    0.1866 C   0  0  0  0  0  0  0  0  0  0  0  0
    4.0952    0.2602    0.1213 Br  0  0  0  0  0  0  0  0  0  0  0  0
    1.5906   -0.3860    1.3295 C   0  0  0  0  0  0  0  0  0  0  0  0
    0.2003   -0.4939    1.3399 C   0  0  0  0  0  0  0  0  0  0  0  0
   -0.6520   -1.1497    2.8985 Br  0  0  0  0  0  0  0  0  0  0  0  0
   -2.2008   -0.4394   -1.8275 H   0  0  0  0  0  0  0  0  0  0  0  0
   -2.3268    1.2458   -1.1875 H   0  0  0  0  0  0  0  0  0  0  0  0
   -3.5936    0.0575   -0.8591 H   0  0  0  0  0  0  0  0  0  0  0  0
    1.8813    0.8315   -1.8186 H   0  0  0  0  0  0  0  0  0  0  0  0
    2.1731   -0.6731    2.2000 H   0  0  0  0  0  0  0  0  0  0  0  0
  1  2  1  0
  2  3  1  0
  3  4  2  0
  4  5  1  0
  5  6  2  0
  6  7  1  0
  6  8  1  0
  8  9  2  0
  9 10  1  0
  9  3  1  0
  1 11  1  0
  1 12  1  0
  1 13  1  0
  5 14  1  0
  8 15  1  0
M  END
