
     RDKit          3D

 18 18  0  0  0  0  0  0  0  0999 V2000
   -2.8731   -0.7935   -0.3902 C   0  0  0  0  0  0  0  0  0  0  0  0
   -2.0388    0.3847    0.0392 C   0  0  0  0  0  0  0  0  0  0  0  0
   -2.5567    1.4608    0.3291 O   0  0  0  0  0  0  0  0  0  0  0  0
   -0.5546    0.2382    0.1127 C   0  0  0  0  0  0  0  0  0  0  0  0
    0.0924   -0.9619   -0.2051 C   0  0  0  0  0  0  0  0  0  0  0  0
    1.4865   -1.0481   -0.1203 C   0  0  0  0  0  0  0  0  0  0  0  0
    2.3095   -2.7000   -0.5631 Br  0  0  0  0  0  0  0  0  0  0  0  0
    2.2409    0.0571    0.2803 C   0  0  0  0  0  0  0  0  0  0  0  0
    3.6040   -0.0479    0.3568 O   0  0  0  0  0  0  0  0  0  0  0  0
    1.5935    1.2537    0.5969 C   0  0  0  0  0  0  0  0  0  0  0  0
    2.5824    2.7759    1.1446 Br  0  0  0  0  0  0  0  0  0  0  0  0
    0.2035    1.3474    0.5147 C   0  0  0  0  0  0  0  0  0  0  0  0
   -3.9292   -0.5061   -0.3861 H   0  0  0  0  0  0  0  0  0  0  0  0
   -2.7456   -1.6233    0.3097 H   0  0  0  0  0  0  0  0  0  0  0  0
   -2.6085   -1.0948   -1.4070 H   0  0  0  0  0  0  0  0  0  0  0  0
   -0.4692   -1.8370   -0.5194 H   0  0  0  0  0  0  0  0  0  0  0  0
    3.9587    0.8114    0.6497 H   0  0  0  0  0  0  0  0  0  0  0  0
   -0.2956    2.2832    0.7630 H   0  0  0  0  0  0  0  0  0  0  0  0
  1  2  1  0
  2  3  2  0
  2  4  1  0
  4  5  2  0
  5  6  1  0
  6  7  1  0
  6  8  2  0
  8  9  1  0
  8 10  1  0
 10 11  1  0
 10 12  2  0
 12  4  1  0
  1 13  1  0
  1 14  1  0
  1 15  1  0
  5 16  1  0
  9 17  1  0
 12 18  1  0
M  END
