
     RDKit          3D

 12 12  0  0  0  0  0  0  0  0999 V2000
   -2.6989    0.3743    0.0430 F   0  0  0  0  0  0  0  0  0  0  0  0
   -1.3685    0.1949    0.0217 C   0  0  0  0  0  0  0  0  0  0  0  0
   -0.5173    1.2985   -0.0203 C   0  0  0  0  0  0  0  0  0  0  0  0
   -1.1577    2.8972   -0.0452 Cl  0  0  0  0  0  0  0  0  0  0  0  0
    0.8664    1.1196   -0.0426 C   0  0  0  0  0  0  0  0  0  0  0  0
    1.3892   -0.1735   -0.0226 C   0  0  0  0  0  0  0  0  0  0  0  0
    3.2628   -0.4236   -0.0526 Br  0  0  0  0  0  0  0  0  0  0  0  0
    0.5463   -1.2845    0.0194 C   0  0  0  0  0  0  0  0  0  0  0  0
   -0.8362   -1.0935    0.0415 C   0  0  0  0  0  0  0  0  0  0  0  0
   -1.9759   -2.6025    0.0984 Br  0  0  0  0  0  0  0  0  0  0  0  0
    1.5274    1.9821   -0.0754 H   0  0  0  0  0  0  0  0  0  0  0  0
    0.9623   -2.2890    0.0349 H   0  0  0  0  0  0  0  0  0  0  0  0
  1  2  1  0
  2  3  2  0
  3  4  1  0
  3  5  1  0
  5  6  2  0
  6  7  1  0
  6  8  1  0
  8  9  2  0
  9 10  1  0
  9  2  1  0
  5 11  1  0
  8 12  1  0
M  END
