
     RDKit          3D

 11 11  0  0  0  0  0  0  0  0999 V2000
   -2.3685   -0.8169   -0.8290 O   0  0  0  0  0  0  0  0  0  0  0  0
   -1.5434   -0.9478    0.0817 N   0  0  0  0  0  4  0  0  0  0  0  0
   -1.6384   -1.7111    1.0495 O   0  0  0  0  0  1  0  0  0  0  0  0
   -0.3758   -0.1465    0.0078 C   0  0  0  0  0  0  0  0  0  0  0  0
   -0.2828    1.2417   -0.1802 C   0  0  0  0  0  0  0  0  0  0  0  0
   -1.7331    2.4323   -0.3449 Br  0  0  0  0  0  0  0  0  0  0  0  0
    0.9834    1.6751   -0.1960 N   0  0  0  0  0  0  0  0  0  0  0  0
    1.7003    0.5499   -0.0215 N   0  0  0  0  0  0  0  0  0  0  0  0
    0.9306   -0.5690    0.1043 C   0  0  0  0  0  0  0  0  0  0  0  0
    1.6140   -2.3229    0.3294 Br  0  0  0  0  0  0  0  0  0  0  0  0
    2.7136    0.6152   -0.0013 H   0  0  0  0  0  0  0  0  0  0  0  0
  1  2  2  0
  2  3  1  0
  2  4  1  0
  4  5  1  0
  5  6  1  0
  5  7  2  0
  7  8  1  0
  8  9  1  0
  9 10  1  0
  9  4  2  0
  8 11  1  0
M  CHG  2   2   1   3  -1
M  END
