
     RDKit          3D

 22 22  0  0  0  0  0  0  0  0999 V2000
    3.9021    0.2453    0.3594 C   0  0  0  0  0  0  0  0  0  0  0  0
    3.1876   -0.2103   -0.7919 O   0  0  0  0  0  0  0  0  0  0  0  0
    1.8337   -0.1577   -0.5749 C   0  0  0  0  0  0  0  0  0  0  0  0
    1.1535   -1.2743   -0.0712 C   0  0  0  0  0  0  0  0  0  0  0  0
    2.0549   -2.8944    0.3420 Br  0  0  0  0  0  0  0  0  0  0  0  0
   -0.2294   -1.2297    0.1253 C   0  0  0  0  0  0  0  0  0  0  0  0
   -0.9482   -0.0734   -0.2000 C   0  0  0  0  0  0  0  0  0  0  0  0
   -2.4282   -0.0308    0.0140 C   0  0  0  0  0  0  0  0  0  0  0  0
   -3.0783    1.1815    0.0090 N   0  0  0  0  0  0  0  0  0  0  0  0
   -3.0647   -1.1512    0.2086 N   0  0  0  0  0  0  0  0  0  0  0  0
   -4.4354   -0.9205    0.4158 O   0  0  0  0  0  0  0  0  0  0  0  0
   -0.2804    1.0280   -0.7467 C   0  0  0  0  0  0  0  0  0  0  0  0
    1.1032    0.9805   -0.9417 C   0  0  0  0  0  0  0  0  0  0  0  0
    1.9353    2.4899   -1.7407 Br  0  0  0  0  0  0  0  0  0  0  0  0
    3.6670    1.2892    0.5913 H   0  0  0  0  0  0  0  0  0  0  0  0
    4.9710    0.1815    0.1349 H   0  0  0  0  0  0  0  0  0  0  0  0
    3.7019   -0.3836    1.2329 H   0  0  0  0  0  0  0  0  0  0  0  0
   -0.7507   -2.0973    0.5243 H   0  0  0  0  0  0  0  0  0  0  0  0
   -2.6291    1.9091    0.5522 H   0  0  0  0  0  0  0  0  0  0  0  0
   -4.0393    1.0370    0.3156 H   0  0  0  0  0  0  0  0  0  0  0  0
   -4.7883   -1.8289    0.4613 H   0  0  0  0  0  0  0  0  0  0  0  0
   -0.8382    1.9100   -1.0508 H   0  0  0  0  0  0  0  0  0  0  0  0
  1  2  1  0
  2  3  1  0
  3  4  2  0
  4  5  1  0
  4  6  1  0
  6  7  2  0
  7  8  1  0
  8  9  1  0
  8 10  2  0
 10 11  1  0
  7 12  1  0
 12 13  2  0
 13 14  1  0
 13  3  1  0
  1 15  1  0
  1 16  1  0
  1 17  1  0
  6 18  1  0
  9 19  1  0
  9 20  1  0
 11 21  1  0
 12 22  1  0
M  END
