
     RDKit          3D

 23 23  0  0  0  0  0  0  0  0999 V2000
   -1.9654    1.5328   -1.2879 C   0  0  0  0  0  0  0  0  0  0  0  0
   -1.1154    0.6607   -0.3593 C   0  0  0  0  0  0  0  0  0  0  0  0
   -1.9416    0.2536    0.8614 C   0  0  0  0  0  0  0  0  0  0  0  0
   -0.5779   -0.5560   -1.1386 C   0  0  0  0  0  0  0  0  0  0  0  0
    0.3684   -1.4718   -0.3568 C   0  0  0  0  0  0  0  0  0  0  0  0
    1.5943   -0.8282    0.0598 N   0  0  0  0  0  0  0  0  0  0  0  0
    1.7262   -0.3721    1.3205 N   0  0  0  0  0  0  0  0  0  0  0  0
    2.9682    0.1223    1.2931 C   0  0  0  0  0  0  0  0  0  0  0  0
    3.7612    0.9382    2.7960 Br  0  0  0  0  0  0  0  0  0  0  0  0
    3.6204   -0.0093    0.0986 N   0  0  0  0  0  0  0  0  0  0  0  0
    2.7358   -0.6163   -0.6587 C   0  0  0  0  0  0  0  0  0  0  0  0
    3.0623   -1.0947   -2.4734 Br  0  0  0  0  0  0  0  0  0  0  0  0
   -2.3267    2.4235   -0.7629 H   0  0  0  0  0  0  0  0  0  0  0  0
   -2.8360    0.9840   -1.6630 H   0  0  0  0  0  0  0  0  0  0  0  0
   -1.3793    1.8700   -2.1495 H   0  0  0  0  0  0  0  0  0  0  0  0
   -0.2718    1.2722   -0.0173 H   0  0  0  0  0  0  0  0  0  0  0  0
   -2.3654    1.1354    1.3543 H   0  0  0  0  0  0  0  0  0  0  0  0
   -1.3301   -0.2677    1.6035 H   0  0  0  0  0  0  0  0  0  0  0  0
   -2.7698   -0.4048    0.5784 H   0  0  0  0  0  0  0  0  0  0  0  0
   -1.4246   -1.1604   -1.4892 H   0  0  0  0  0  0  0  0  0  0  0  0
   -0.0634   -0.1972   -2.0390 H   0  0  0  0  0  0  0  0  0  0  0  0
    0.6484   -2.3301   -0.9783 H   0  0  0  0  0  0  0  0  0  0  0  0
   -0.1180   -1.8839    0.5338 H   0  0  0  0  0  0  0  0  0  0  0  0
  1  2  1  0
  2  3  1  0
  2  4  1  0
  4  5  1  0
  5  6  1  0
  6  7  1  0
  7  8  2  0
  8  9  1  0
  8 10  1  0
 10 11  2  0
 11 12  1  0
 11  6  1  0
  1 13  1  0
  1 14  1  0
  1 15  1  0
  2 16  1  0
  3 17  1  0
  3 18  1  0
  3 19  1  0
  4 20  1  0
  4 21  1  0
  5 22  1  0
  5 23  1  0
M  END
