
     RDKit          3D

 14 14  0  0  0  0  0  0  0  0999 V2000
    2.4464    0.9943    0.7688 O   0  0  0  0  0  0  0  0  0  0  0  0
    1.7779    0.3772   -0.0344 C   0  0  0  0  0  0  0  0  0  0  0  0
    2.2775   -0.1647   -1.1565 O   0  0  0  0  0  0  0  0  0  0  0  0
    0.3439    0.1099    0.0568 C   0  0  0  0  0  0  0  0  0  0  0  0
   -0.1099   -1.0380    0.7074 C   0  0  0  0  0  0  0  0  0  0  0  0
    1.0400   -2.3213    1.4898 Br  0  0  0  0  0  0  0  0  0  0  0  0
   -1.4800   -1.2380    0.7772 C   0  0  0  0  0  0  0  0  0  0  0  0
   -2.3940   -0.3860    0.2557 N   0  0  0  0  0  0  0  0  0  0  0  0
   -1.9174    0.7200   -0.3631 C   0  0  0  0  0  0  0  0  0  0  0  0
   -0.5684    1.0143   -0.4878 C   0  0  0  0  0  0  0  0  0  0  0  0
   -0.0606    2.6047   -1.3790 Br  0  0  0  0  0  0  0  0  0  0  0  0
    3.2322    0.0598   -1.1374 H   0  0  0  0  0  0  0  0  0  0  0  0
   -1.9040   -2.1110    1.2675 H   0  0  0  0  0  0  0  0  0  0  0  0
   -2.6837    1.3787   -0.7649 H   0  0  0  0  0  0  0  0  0  0  0  0
  1  2  2  0
  2  3  1  0
  2  4  1  0
  4  5  2  0
  5  6  1  0
  5  7  1  0
  7  8  2  0
  8  9  1  0
  9 10  2  0
 10 11  1  0
 10  4  1  0
  3 12  1  0
  7 13  1  0
  9 14  1  0
M  END
