
     RDKit          3D

 22 22  0  0  0  0  0  0  0  0999 V2000
   -2.6104    1.4136    0.1705 C   0  0  0  0  0  0  0  0  0  0  0  0
   -1.5591    0.4667   -0.4032 C   0  0  0  0  0  0  0  0  0  0  0  0
   -2.2285   -0.8216   -0.8747 C   0  0  0  0  0  0  0  0  0  0  0  0
   -0.6208    0.1894    0.6545 O   0  0  0  0  0  0  0  0  0  0  0  0
    0.6575   -0.0390    0.2099 C   0  0  0  0  0  0  0  0  0  0  0  0
    1.1822   -1.3396    0.2942 C   0  0  0  0  0  0  0  0  0  0  0  0
    0.1864   -2.7826    1.0261 Br  0  0  0  0  0  0  0  0  0  0  0  0
    2.4826   -1.6102   -0.1351 C   0  0  0  0  0  0  0  0  0  0  0  0
    3.2695   -0.5733   -0.6155 C   0  0  0  0  0  0  0  0  0  0  0  0
    4.5186   -0.8305   -1.0237 F   0  0  0  0  0  0  0  0  0  0  0  0
    2.7954    0.7309   -0.6536 C   0  0  0  0  0  0  0  0  0  0  0  0
    1.4944    1.0032   -0.2233 C   0  0  0  0  0  0  0  0  0  0  0  0
    0.9680    2.8284   -0.1805 Br  0  0  0  0  0  0  0  0  0  0  0  0
   -3.1185    0.9607    1.0293 H   0  0  0  0  0  0  0  0  0  0  0  0
   -2.1456    2.3355    0.5341 H   0  0  0  0  0  0  0  0  0  0  0  0
   -3.3609    1.6770   -0.5812 H   0  0  0  0  0  0  0  0  0  0  0  0
   -1.0814    0.9510   -1.2633 H   0  0  0  0  0  0  0  0  0  0  0  0
   -3.0177   -0.6128   -1.6040 H   0  0  0  0  0  0  0  0  0  0  0  0
   -2.6653   -1.3707   -0.0338 H   0  0  0  0  0  0  0  0  0  0  0  0
   -1.5001   -1.4847   -1.3515 H   0  0  0  0  0  0  0  0  0  0  0  0
    2.8985   -2.6120   -0.0882 H   0  0  0  0  0  0  0  0  0  0  0  0
    3.4552    1.5208   -0.9997 H   0  0  0  0  0  0  0  0  0  0  0  0
  1  2  1  0
  2  3  1  0
  2  4  1  0
  4  5  1  0
  5  6  2  0
  6  7  1  0
  6  8  1  0
  8  9  2  0
  9 10  1  0
  9 11  1  0
 11 12  2  0
 12 13  1  0
 12  5  1  0
  1 14  1  0
  1 15  1  0
  1 16  1  0
  2 17  1  0
  3 18  1  0
  3 19  1  0
  3 20  1  0
  8 21  1  0
 11 22  1  0
M  END
