
     RDKit          3D

 13 13  0  0  0  0  0  0  0  0999 V2000
    2.7945   -0.0973    0.9250 O   0  0  0  0  0  0  0  0  0  0  0  0
    2.0214   -0.5434    0.0882 C   0  0  0  0  0  0  0  0  0  0  0  0
    0.6007   -0.1453    0.0271 C   0  0  0  0  0  0  0  0  0  0  0  0
    0.2012    1.1804    0.2340 C   0  0  0  0  0  0  0  0  0  0  0  0
    1.3820    2.6352    0.5173 Br  0  0  0  0  0  0  0  0  0  0  0  0
   -1.1566    1.4673    0.1682 C   0  0  0  0  0  0  0  0  0  0  0  0
   -2.1146    0.5477   -0.0889 N   0  0  0  0  0  0  0  0  0  0  0  0
   -1.6998   -0.7221   -0.2894 C   0  0  0  0  0  0  0  0  0  0  0  0
   -0.3696   -1.1176   -0.2463 C   0  0  0  0  0  0  0  0  0  0  0  0
    0.0134   -2.9541   -0.5202 Br  0  0  0  0  0  0  0  0  0  0  0  0
    2.3589   -1.2972   -0.6418 H   0  0  0  0  0  0  0  0  0  0  0  0
   -1.5314    2.4781    0.3142 H   0  0  0  0  0  0  0  0  0  0  0  0
   -2.5001   -1.4315   -0.4873 H   0  0  0  0  0  0  0  0  0  0  0  0
  1  2  2  0
  2  3  1  0
  3  4  2  0
  4  5  1  0
  4  6  1  0
  6  7  2  0
  7  8  1  0
  8  9  2  0
  9 10  1  0
  9  3  1  0
  2 11  1  0
  6 12  1  0
  8 13  1  0
M  END
