
     RDKit          3D

 14 14  0  0  0  0  0  0  0  0999 V2000
   -2.0007   -0.3530    0.0355 C   0  0  0  0  0  0  0  0  0  0  0  0
   -0.5682   -0.1217    0.0073 N   0  0  0  0  0  0  0  0  0  0  0  0
   -0.0787    1.1607    0.1557 C   0  0  0  0  0  0  0  0  0  0  0  0
    1.2402    1.4094    0.1344 C   0  0  0  0  0  0  0  0  0  0  0  0
    1.8915    3.1507    0.3365 Br  0  0  0  0  0  0  0  0  0  0  0  0
    2.2036    0.4476   -0.0314 N   0  0  0  0  0  0  0  0  0  0  0  0
    1.7877   -0.7762   -0.1752 C   0  0  0  0  0  0  0  0  0  0  0  0
    3.1320   -2.1149   -0.4061 Br  0  0  0  0  0  0  0  0  0  0  0  0
    0.3132   -1.1855   -0.1686 C   0  0  0  0  0  0  0  0  0  0  0  0
   -0.0045   -2.3576   -0.3095 O   0  0  0  0  0  0  0  0  0  0  0  0
   -2.3975   -0.0169    0.9986 H   0  0  0  0  0  0  0  0  0  0  0  0
   -2.2396   -1.4121   -0.0938 H   0  0  0  0  0  0  0  0  0  0  0  0
   -2.4700    0.2158   -0.7732 H   0  0  0  0  0  0  0  0  0  0  0  0
   -0.8089    1.9537    0.2898 H   0  0  0  0  0  0  0  0  0  0  0  0
  1  2  1  0
  2  3  1  0
  3  4  2  0
  4  5  1  0
  4  6  1  0
  6  7  2  0
  7  8  1  0
  7  9  1  0
  9 10  2  0
  9  2  1  0
  1 11  1  0
  1 12  1  0
  1 13  1  0
  3 14  1  0
M  END
