
     RDKit          3D

 20 20  0  0  0  0  0  0  0  0999 V2000
   -3.1492    0.5941    0.3449 C   0  0  0  0  0  0  0  0  0  0  0  0
   -2.0847   -0.2972   -0.2744 C   0  0  0  0  0  0  0  0  0  0  0  0
   -0.6779    0.1848    0.0757 C   0  0  0  0  0  0  0  0  0  0  0  0
    0.3859   -0.7148   -0.5495 C   0  0  0  0  0  0  0  0  0  0  0  0
    1.7270   -0.2766   -0.2278 N   0  0  0  0  0  0  0  0  0  0  0  0
    2.3681    0.5890   -1.0365 N   0  0  0  0  0  0  0  0  0  0  0  0
    3.5366    0.7255   -0.4006 C   0  0  0  0  0  0  0  0  0  0  0  0
    4.9126    1.8397   -1.0481 Br  0  0  0  0  0  0  0  0  0  0  0  0
    3.6601   -0.0000    0.7522 N   0  0  0  0  0  0  0  0  0  0  0  0
    2.5063   -0.6213    0.8383 C   0  0  0  0  0  0  0  0  0  0  0  0
    2.0510   -1.7972    2.2660 Br  0  0  0  0  0  0  0  0  0  0  0  0
   -3.0675    0.6023    1.4365 H   0  0  0  0  0  0  0  0  0  0  0  0
   -3.0564    1.6239   -0.0146 H   0  0  0  0  0  0  0  0  0  0  0  0
   -4.1476    0.2311    0.0817 H   0  0  0  0  0  0  0  0  0  0  0  0
   -2.2251   -1.3248    0.0806 H   0  0  0  0  0  0  0  0  0  0  0  0
   -2.2142   -0.3091   -1.3629 H   0  0  0  0  0  0  0  0  0  0  0  0
   -0.5425    1.2162   -0.2737 H   0  0  0  0  0  0  0  0  0  0  0  0
   -0.5558    0.2055    1.1658 H   0  0  0  0  0  0  0  0  0  0  0  0
    0.2773   -1.7506   -0.2110 H   0  0  0  0  0  0  0  0  0  0  0  0
    0.2959   -0.7205   -1.6424 H   0  0  0  0  0  0  0  0  0  0  0  0
  1  2  1  0
  2  3  1  0
  3  4  1  0
  4  5  1  0
  5  6  1  0
  6  7  2  0
  7  8  1  0
  7  9  1  0
  9 10  2  0
 10 11  1  0
 10  5  1  0
  1 12  1  0
  1 13  1  0
  1 14  1  0
  2 15  1  0
  2 16  1  0
  3 17  1  0
  3 18  1  0
  4 19  1  0
  4 20  1  0
M  END
