
     RDKit          3D

 27 28  0  0  0  0  0  0  0  0999 V2000
   -0.0093   -1.8732    0.9356 O   0  0  0  0  0  0  0  0  0  0  0  0
    0.3235   -0.8239    0.3933 C   0  0  0  0  0  0  0  0  0  0  0  0
   -0.5380    0.1588   -0.0494 N   0  0  0  0  0  0  0  0  0  0  0  0
   -1.9444    0.1808    0.0177 C   0  0  0  0  0  0  0  0  0  0  0  0
   -2.7184   -0.8417    0.5711 C   0  0  0  0  0  0  0  0  0  0  0  0
   -4.1145   -0.7408    0.5983 C   0  0  0  0  0  0  0  0  0  0  0  0
   -4.7409    0.3846    0.0712 C   0  0  0  0  0  0  0  0  0  0  0  0
   -6.4561    0.5077    0.1050 Cl  0  0  0  0  0  0  0  0  0  0  0  0
   -3.9834    1.4117   -0.4835 C   0  0  0  0  0  0  0  0  0  0  0  0
   -2.5892    1.3084   -0.5094 C   0  0  0  0  0  0  0  0  0  0  0  0
    1.7908   -0.5682    0.1842 C   0  0  0  0  0  0  0  0  0  0  0  0
    2.6783   -1.5643    0.6321 C   0  0  0  0  0  0  0  0  0  0  0  0
    4.0564   -1.4118    0.4795 C   0  0  0  0  0  0  0  0  0  0  0  0
    5.2233   -2.7675    1.0914 Br  0  0  0  0  0  0  0  0  0  0  0  0
    4.5820   -0.2717   -0.1188 C   0  0  0  0  0  0  0  0  0  0  0  0
    3.7137    0.7216   -0.5664 C   0  0  0  0  0  0  0  0  0  0  0  0
    4.4506    2.2699   -1.3802 Br  0  0  0  0  0  0  0  0  0  0  0  0
    2.3246    0.5825   -0.4199 C   0  0  0  0  0  0  0  0  0  0  0  0
    1.4930    1.5802   -0.8717 O   0  0  0  0  0  0  0  0  0  0  0  0
   -0.0955    0.9683   -0.4780 H   0  0  0  0  0  0  0  0  0  0  0  0
   -2.2670   -1.7347    0.9918 H   0  0  0  0  0  0  0  0  0  0  0  0
   -4.6998   -1.5467    1.0330 H   0  0  0  0  0  0  0  0  0  0  0  0
   -4.4677    2.2924   -0.8962 H   0  0  0  0  0  0  0  0  0  0  0  0
   -2.0150    2.1212   -0.9469 H   0  0  0  0  0  0  0  0  0  0  0  0
    2.2875   -2.4655    1.1037 H   0  0  0  0  0  0  0  0  0  0  0  0
    5.6572   -0.1598   -0.2343 H   0  0  0  0  0  0  0  0  0  0  0  0
    2.0583    2.2818   -1.2533 H   0  0  0  0  0  0  0  0  0  0  0  0
  1  2  2  0
  2  3  1  0
  3  4  1  0
  4  5  2  0
  5  6  1  0
  6  7  2  0
  7  8  1  0
  7  9  1  0
  9 10  2  0
  2 11  1  0
 11 12  2  0
 12 13  1  0
 13 14  1  0
 13 15  2  0
 15 16  1  0
 16 17  1  0
 16 18  2  0
 18 19  1  0
 10  4  1  0
 18 11  1  0
  3 20  1  0
  5 21  1  0
  6 22  1  0
  9 23  1  0
 10 24  1  0
 12 25  1  0
 15 26  1  0
 19 27  1  0
M  END
