
     RDKit          3D

 12 12  0  0  0  0  0  0  0  0999 V2000
   -2.1711   -0.6065    0.1162 N   0  0  0  0  0  0  0  0  0  0  0  0
   -0.8392   -0.2000    0.0582 C   0  0  0  0  0  0  0  0  0  0  0  0
    0.0626   -1.2011    0.0027 N   0  0  0  0  0  0  0  0  0  0  0  0
    1.3681   -0.8283   -0.0063 C   0  0  0  0  0  0  0  0  0  0  0  0
    2.4437   -2.1671   -0.0837 Cl  0  0  0  0  0  0  0  0  0  0  0  0
    1.7736    0.5044    0.0374 C   0  0  0  0  0  0  0  0  0  0  0  0
    3.6047    1.0099    0.0161 Br  0  0  0  0  0  0  0  0  0  0  0  0
    0.8757    1.5187    0.0935 N   0  0  0  0  0  0  0  0  0  0  0  0
   -0.4284    1.1462    0.1133 C   0  0  0  0  0  0  0  0  0  0  0  0
   -1.7117    2.5470    0.1938 Br  0  0  0  0  0  0  0  0  0  0  0  0
   -2.7668   -0.1075   -0.5363 H   0  0  0  0  0  0  0  0  0  0  0  0
   -2.2112   -1.6157   -0.0049 H   0  0  0  0  0  0  0  0  0  0  0  0
  1  2  1  0
  2  3  2  0
  3  4  1  0
  4  5  1  0
  4  6  2  0
  6  7  1  0
  6  8  1  0
  8  9  2  0
  9 10  1  0
  9  2  1  0
  1 11  1  0
  1 12  1  0
M  END
