
     RDKit          3D

 15 16  0  0  0  0  0  0  0  0999 V2000
   -2.7492    2.7009   -0.2806 Br  0  0  0  0  0  0  0  0  0  0  0  0
   -1.5790    1.2256   -0.0837 C   0  0  0  0  0  0  0  0  0  0  0  0
   -2.1016   -0.0178    0.2806 C   0  0  0  0  0  0  0  0  0  0  0  0
   -1.2655   -1.1290    0.4349 C   0  0  0  0  0  0  0  0  0  0  0  0
    0.0937   -0.9231    0.2071 C   0  0  0  0  0  0  0  0  0  0  0  0
    1.0612   -1.8786    0.3071 O   0  0  0  0  0  0  0  0  0  0  0  0
    2.2439   -1.2761    0.0083 C   0  0  0  0  0  0  0  0  0  0  0  0
    2.0354    0.0481   -0.2791 C   0  0  0  0  0  0  0  0  0  0  0  0
    3.3335    1.3117   -0.7503 Br  0  0  0  0  0  0  0  0  0  0  0  0
    0.6492    0.3013   -0.1570 C   0  0  0  0  0  0  0  0  0  0  0  0
   -0.2077    1.4089   -0.3077 C   0  0  0  0  0  0  0  0  0  0  0  0
   -3.1699   -0.1359    0.4492 H   0  0  0  0  0  0  0  0  0  0  0  0
   -1.6486   -2.1026    0.7167 H   0  0  0  0  0  0  0  0  0  0  0  0
    3.1163   -1.9129    0.0449 H   0  0  0  0  0  0  0  0  0  0  0  0
    0.1884    2.3794   -0.5905 H   0  0  0  0  0  0  0  0  0  0  0  0
  1  2  1  0
  2  3  2  0
  3  4  1  0
  4  5  2  0
  5  6  1  0
  6  7  1  0
  7  8  2  0
  8  9  1  0
  8 10  1  0
 10 11  2  0
 11  2  1  0
 10  5  1  0
  3 12  1  0
  4 13  1  0
  7 14  1  0
 11 15  1  0
M  END
