
     RDKit          3D

 21 22  0  0  0  0  0  0  0  0999 V2000
   -2.8432    1.4025    2.0791 F   0  0  0  0  0  0  0  0  0  0  0  0
   -2.3471    0.6757    1.0672 C   0  0  0  0  0  0  0  0  0  0  0  0
   -1.0679    0.9695    0.5980 C   0  0  0  0  0  0  0  0  0  0  0  0
   -0.5134    0.2307   -0.4599 C   0  0  0  0  0  0  0  0  0  0  0  0
    0.8714    0.5463   -0.9731 C   0  0  0  0  0  0  0  0  0  0  0  0
    1.8932    0.2472    0.0131 N   0  0  0  0  0  0  0  0  0  0  0  0
    2.4140    1.2310    0.7772 N   0  0  0  0  0  0  0  0  0  0  0  0
    3.3039    0.5515    1.5088 C   0  0  0  0  0  0  0  0  0  0  0  0
    4.3811    1.3834    2.8129 Br  0  0  0  0  0  0  0  0  0  0  0  0
    3.3806   -0.7861    1.2362 N   0  0  0  0  0  0  0  0  0  0  0  0
    2.4841   -0.9517    0.2912 C   0  0  0  0  0  0  0  0  0  0  0  0
    2.1198   -2.6349   -0.5223 Br  0  0  0  0  0  0  0  0  0  0  0  0
   -1.2748   -0.7989   -1.0364 C   0  0  0  0  0  0  0  0  0  0  0  0
   -2.5578   -1.0889   -0.5595 C   0  0  0  0  0  0  0  0  0  0  0  0
   -3.0936   -0.3498    0.4946 C   0  0  0  0  0  0  0  0  0  0  0  0
   -4.6738   -0.7164    1.0687 Cl  0  0  0  0  0  0  0  0  0  0  0  0
   -0.5128    1.7777    1.0711 H   0  0  0  0  0  0  0  0  0  0  0  0
    1.1073   -0.0190   -1.8813 H   0  0  0  0  0  0  0  0  0  0  0  0
    0.9426    1.6098   -1.2308 H   0  0  0  0  0  0  0  0  0  0  0  0
   -0.8799   -1.3882   -1.8630 H   0  0  0  0  0  0  0  0  0  0  0  0
   -3.1338   -1.8913   -1.0147 H   0  0  0  0  0  0  0  0  0  0  0  0
  1  2  1  0
  2  3  2  0
  3  4  1  0
  4  5  1  0
  5  6  1  0
  6  7  1  0
  7  8  2  0
  8  9  1  0
  8 10  1  0
 10 11  2  0
 11 12  1  0
  4 13  2  0
 13 14  1  0
 14 15  2  0
 15 16  1  0
 15  2  1  0
 11  6  1  0
  3 17  1  0
  5 18  1  0
  5 19  1  0
 13 20  1  0
 14 21  1  0
M  END
