
     RDKit          3D

 11 11  0  0  0  0  0  0  0  0999 V2000
   -1.5283   -0.6443   -0.1944 C   0  0  0  0  0  0  0  0  0  0  0  0
   -0.1851   -0.1517   -0.0437 N   0  0  0  0  0  0  0  0  0  0  0  0
    0.8707   -0.9594   -0.2514 N   0  0  0  0  0  0  0  0  0  0  0  0
    1.8886   -0.1251   -0.0113 C   0  0  0  0  0  0  0  0  0  0  0  0
    3.6893   -0.6688   -0.1380 Br  0  0  0  0  0  0  0  0  0  0  0  0
    1.5283    1.1495    0.3324 N   0  0  0  0  0  0  0  0  0  0  0  0
    0.2163    1.1045    0.3042 C   0  0  0  0  0  0  0  0  0  0  0  0
   -0.9032    2.5937    0.6974 Br  0  0  0  0  0  0  0  0  0  0  0  0
   -2.0481   -0.5367    0.7606 H   0  0  0  0  0  0  0  0  0  0  0  0
   -1.5013   -1.6986   -0.4820 H   0  0  0  0  0  0  0  0  0  0  0  0
   -2.0271   -0.0631   -0.9738 H   0  0  0  0  0  0  0  0  0  0  0  0
  1  2  1  0
  2  3  1  0
  3  4  2  0
  4  5  1  0
  4  6  1  0
  6  7  2  0
  7  8  1  0
  7  2  1  0
  1  9  1  0
  1 10  1  0
  1 11  1  0
M  END
