
     RDKit          3D

 15 15  0  0  0  0  0  0  0  0999 V2000
   -2.5311    1.4845   -1.4511 O   0  0  0  0  0  0  0  0  0  0  0  0
   -2.1182    0.4061   -1.0387 C   0  0  0  0  0  0  0  0  0  0  0  0
   -0.7870    0.2777   -0.4125 C   0  0  0  0  0  0  0  0  0  0  0  0
    0.0230    1.4130   -0.2865 C   0  0  0  0  0  0  0  0  0  0  0  0
    1.2805    1.2993    0.3033 C   0  0  0  0  0  0  0  0  0  0  0  0
    2.3763    2.8302    0.4749 Br  0  0  0  0  0  0  0  0  0  0  0  0
    1.7402    0.0680    0.7689 C   0  0  0  0  0  0  0  0  0  0  0  0
    0.9284   -1.0597    0.6405 C   0  0  0  0  0  0  0  0  0  0  0  0
    1.5711   -2.7252    1.2797 Br  0  0  0  0  0  0  0  0  0  0  0  0
   -0.3366   -0.9615    0.0505 C   0  0  0  0  0  0  0  0  0  0  0  0
   -1.1407   -2.0621   -0.0801 O   0  0  0  0  0  0  0  0  0  0  0  0
   -2.7299   -0.5071   -1.1221 H   0  0  0  0  0  0  0  0  0  0  0  0
   -0.3322    2.3762   -0.6487 H   0  0  0  0  0  0  0  0  0  0  0  0
    2.7229   -0.0101    1.2276 H   0  0  0  0  0  0  0  0  0  0  0  0
   -0.6668   -2.8293    0.2943 H   0  0  0  0  0  0  0  0  0  0  0  0
  1  2  2  0
  2  3  1  0
  3  4  2  0
  4  5  1  0
  5  6  1  0
  5  7  2  0
  7  8  1  0
  8  9  1  0
  8 10  2  0
 10 11  1  0
 10  3  1  0
  2 12  1  0
  4 13  1  0
  7 14  1  0
 11 15  1  0
M  END
