
     RDKit          3D

 18 18  0  0  0  0  0  0  0  0999 V2000
   -2.9728    0.0293    0.2482 C   0  0  0  0  0  0  0  0  0  0  0  0
   -1.4696   -0.0226    0.1471 C   0  0  0  0  0  0  0  0  0  0  0  0
   -0.6643    0.9972    0.6943 C   0  0  0  0  0  0  0  0  0  0  0  0
   -1.3968    2.5101    1.5897 Br  0  0  0  0  0  0  0  0  0  0  0  0
    0.7317    0.9586    0.5891 C   0  0  0  0  0  0  0  0  0  0  0  0
    1.3546   -0.0931   -0.0839 C   0  0  0  0  0  0  0  0  0  0  0  0
    2.8275   -0.1779   -0.2229 C   0  0  0  0  0  0  0  0  0  0  0  0
    3.4371   -1.0570   -0.8021 O   0  0  0  0  0  0  0  0  0  0  0  0
    3.4665    0.8435    0.3723 O   0  0  0  0  0  0  0  0  0  0  0  0
    0.5763   -1.0970   -0.6616 C   0  0  0  0  0  0  0  0  0  0  0  0
   -0.8190   -1.0568   -0.5556 C   0  0  0  0  0  0  0  0  0  0  0  0
   -1.7685   -2.4556   -1.4317 Br  0  0  0  0  0  0  0  0  0  0  0  0
   -3.3064    0.5010    1.1767 H   0  0  0  0  0  0  0  0  0  0  0  0
   -3.4187   -0.9689    0.2731 H   0  0  0  0  0  0  0  0  0  0  0  0
   -3.3856    0.5826   -0.6011 H   0  0  0  0  0  0  0  0  0  0  0  0
    1.3307    1.7543    1.0271 H   0  0  0  0  0  0  0  0  0  0  0  0
    4.4153    0.6609    0.2045 H   0  0  0  0  0  0  0  0  0  0  0  0
    1.0619   -1.9087   -1.2018 H   0  0  0  0  0  0  0  0  0  0  0  0
  1  2  1  0
  2  3  2  0
  3  4  1  0
  3  5  1  0
  5  6  2  0
  6  7  1  0
  7  8  2  0
  7  9  1  0
  6 10  1  0
 10 11  2  0
 11 12  1  0
 11  2  1  0
  1 13  1  0
  1 14  1  0
  1 15  1  0
  5 16  1  0
  9 17  1  0
 10 18  1  0
M  END
