
     RDKit          3D

 11 11  0  0  0  0  0  0  0  0999 V2000
    2.9648    0.9880    0.3022 Br  0  0  0  0  0  0  0  0  0  0  0  0
    1.2293    0.2724    0.1266 C   0  0  0  0  0  0  0  0  0  0  0  0
    1.0267   -1.1008    0.1182 C   0  0  0  0  0  0  0  0  0  0  0  0
   -0.1928   -1.6786   -0.0045 N   0  0  0  0  0  0  0  0  0  0  0  0
   -1.2495   -0.8388   -0.1234 C   0  0  0  0  0  0  0  0  0  0  0  0
   -1.1355    0.5446   -0.1244 C   0  0  0  0  0  0  0  0  0  0  0  0
   -2.6635    1.6360   -0.2951 Br  0  0  0  0  0  0  0  0  0  0  0  0
    0.1279    1.1133    0.0030 C   0  0  0  0  0  0  0  0  0  0  0  0
    1.8546   -1.7983    0.2117 H   0  0  0  0  0  0  0  0  0  0  0  0
   -2.2139   -1.3299   -0.2201 H   0  0  0  0  0  0  0  0  0  0  0  0
    0.2517    2.1920    0.0059 H   0  0  0  0  0  0  0  0  0  0  0  0
  1  2  1  0
  2  3  2  0
  3  4  1  0
  4  5  2  0
  5  6  1  0
  6  7  1  0
  6  8  2  0
  8  2  1  0
  3  9  1  0
  5 10  1  0
  8 11  1  0
M  END
