
     RDKit          3D

 27 28  0  0  0  0  0  0  0  0999 V2000
    0.3102   -1.8570    0.2422 O   0  0  0  0  0  0  0  0  0  0  0  0
    0.4448   -0.6626   -0.0066 C   0  0  0  0  0  0  0  0  0  0  0  0
   -0.5521    0.2951   -0.0322 N   0  0  0  0  0  0  0  0  0  0  0  0
   -1.9403    0.0840    0.1139 C   0  0  0  0  0  0  0  0  0  0  0  0
   -2.5344   -1.1793    0.1937 C   0  0  0  0  0  0  0  0  0  0  0  0
   -3.9211   -1.3023    0.3303 C   0  0  0  0  0  0  0  0  0  0  0  0
   -4.7118   -0.1628    0.3836 C   0  0  0  0  0  0  0  0  0  0  0  0
   -6.0391   -0.2825    0.5136 F   0  0  0  0  0  0  0  0  0  0  0  0
   -4.1428    1.1005    0.3010 C   0  0  0  0  0  0  0  0  0  0  0  0
   -2.7577    1.2237    0.1645 C   0  0  0  0  0  0  0  0  0  0  0  0
    1.8321   -0.1710   -0.2459 C   0  0  0  0  0  0  0  0  0  0  0  0
    2.0706    0.9266   -1.0863 C   0  0  0  0  0  0  0  0  0  0  0  0
    3.3760    1.3780   -1.2825 C   0  0  0  0  0  0  0  0  0  0  0  0
    3.6876    2.8639   -2.4100 Br  0  0  0  0  0  0  0  0  0  0  0  0
    4.4512    0.7472   -0.6621 C   0  0  0  0  0  0  0  0  0  0  0  0
    4.2207   -0.3623    0.1530 C   0  0  0  0  0  0  0  0  0  0  0  0
    5.7189   -1.2038    0.9593 Br  0  0  0  0  0  0  0  0  0  0  0  0
    2.9182   -0.8340    0.3547 C   0  0  0  0  0  0  0  0  0  0  0  0
    2.7373   -1.9414    1.1454 O   0  0  0  0  0  0  0  0  0  0  0  0
   -0.2672    1.2648   -0.0779 H   0  0  0  0  0  0  0  0  0  0  0  0
   -1.9491   -2.0922    0.1470 H   0  0  0  0  0  0  0  0  0  0  0  0
   -4.3834   -2.2824    0.3936 H   0  0  0  0  0  0  0  0  0  0  0  0
   -4.7785    1.9791    0.3435 H   0  0  0  0  0  0  0  0  0  0  0  0
   -2.3314    2.2216    0.1021 H   0  0  0  0  0  0  0  0  0  0  0  0
    1.2559    1.4157   -1.6133 H   0  0  0  0  0  0  0  0  0  0  0  0
    5.4647    1.1080   -0.8205 H   0  0  0  0  0  0  0  0  0  0  0  0
    1.8207   -2.2746    1.0161 H   0  0  0  0  0  0  0  0  0  0  0  0
  1  2  2  0
  2  3  1  0
  3  4  1  0
  4  5  2  0
  5  6  1  0
  6  7  2  0
  7  8  1  0
  7  9  1  0
  9 10  2  0
  2 11  1  0
 11 12  2  0
 12 13  1  0
 13 14  1  0
 13 15  2  0
 15 16  1  0
 16 17  1  0
 16 18  2  0
 18 19  1  0
 10  4  1  0
 18 11  1  0
  3 20  1  0
  5 21  1  0
  6 22  1  0
  9 23  1  0
 10 24  1  0
 12 25  1  0
 15 26  1  0
 19 27  1  0
M  END
