
     RDKit          3D

 33 34  0  0  0  0  0  0  0  0999 V2000
   -2.7774   -1.4592   -1.1358 C   0  0  0  0  0  0  0  0  0  0  0  0
   -2.7253   -0.2103   -0.2293 C   0  0  0  0  0  0  0  0  0  0  0  0
   -3.5063    0.9108   -0.9517 C   0  0  0  0  0  0  0  0  0  0  0  0
   -3.4705   -0.5085    1.0897 C   0  0  0  0  0  0  0  0  0  0  0  0
   -1.2597    0.1481    0.0738 C   0  0  0  0  0  0  0  0  0  0  0  0
   -0.4269   -0.7788    0.7280 C   0  0  0  0  0  0  0  0  0  0  0  0
    0.9100   -0.4876    1.0160 C   0  0  0  0  0  0  0  0  0  0  0  0
    1.4648    0.7439    0.6531 C   0  0  0  0  0  0  0  0  0  0  0  0
    2.9057    1.0623    0.9607 C   0  0  0  0  0  0  0  0  0  0  0  0
    3.8189    0.1800    0.2568 N   0  0  0  0  0  0  0  0  0  0  0  0
    4.4341   -0.8315    0.9085 N   0  0  0  0  0  0  0  0  0  0  0  0
    5.1823   -1.3552   -0.0682 C   0  0  0  0  0  0  0  0  0  0  0  0
    6.2958   -2.8510    0.2088 Br  0  0  0  0  0  0  0  0  0  0  0  0
    5.0913   -0.7216   -1.2761 N   0  0  0  0  0  0  0  0  0  0  0  0
    4.2282    0.2412   -1.0448 C   0  0  0  0  0  0  0  0  0  0  0  0
    3.6878    1.5006   -2.3678 Br  0  0  0  0  0  0  0  0  0  0  0  0
    0.6467    1.6789    0.0110 C   0  0  0  0  0  0  0  0  0  0  0  0
   -0.6920    1.3832   -0.2755 C   0  0  0  0  0  0  0  0  0  0  0  0
   -3.8110   -1.7158   -1.3962 H   0  0  0  0  0  0  0  0  0  0  0  0
   -2.3410   -2.3405   -0.6531 H   0  0  0  0  0  0  0  0  0  0  0  0
   -2.2297   -1.2911   -2.0707 H   0  0  0  0  0  0  0  0  0  0  0  0
   -4.5424    0.6085   -1.1459 H   0  0  0  0  0  0  0  0  0  0  0  0
   -3.5458    1.8268   -0.3507 H   0  0  0  0  0  0  0  0  0  0  0  0
   -3.0559    1.1566   -1.9204 H   0  0  0  0  0  0  0  0  0  0  0  0
   -4.5275   -0.7331    0.9044 H   0  0  0  0  0  0  0  0  0  0  0  0
   -3.4262    0.3500    1.7704 H   0  0  0  0  0  0  0  0  0  0  0  0
   -3.0484   -1.3698    1.6189 H   0  0  0  0  0  0  0  0  0  0  0  0
   -0.8108   -1.7528    1.0255 H   0  0  0  0  0  0  0  0  0  0  0  0
    1.5141   -1.2383    1.5247 H   0  0  0  0  0  0  0  0  0  0  0  0
    3.0895    0.9615    2.0370 H   0  0  0  0  0  0  0  0  0  0  0  0
    3.1645    2.0908    0.6853 H   0  0  0  0  0  0  0  0  0  0  0  0
    1.0369    2.6524   -0.2797 H   0  0  0  0  0  0  0  0  0  0  0  0
   -1.2739    2.1498   -0.7805 H   0  0  0  0  0  0  0  0  0  0  0  0
  1  2  1  0
  2  3  1  0
  2  4  1  0
  2  5  1  0
  5  6  2  0
  6  7  1  0
  7  8  2  0
  8  9  1  0
  9 10  1  0
 10 11  1  0
 11 12  2  0
 12 13  1  0
 12 14  1  0
 14 15  2  0
 15 16  1  0
  8 17  1  0
 17 18  2  0
 18  5  1  0
 15 10  1  0
  1 19  1  0
  1 20  1  0
  1 21  1  0
  3 22  1  0
  3 23  1  0
  3 24  1  0
  4 25  1  0
  4 26  1  0
  4 27  1  0
  6 28  1  0
  7 29  1  0
  9 30  1  0
  9 31  1  0
 17 32  1  0
 18 33  1  0
M  END
