
     RDKit          3D

 18 18  0  0  0  0  0  0  0  0999 V2000
   -1.8869    0.3747    0.9752 C   0  0  0  0  0  0  0  0  0  0  0  0
   -1.1465    0.5593   -0.2773 N   0  0  0  0  0  0  0  0  0  0  0  0
   -1.7278   -0.1811   -1.4001 C   0  0  0  0  0  0  0  0  0  0  0  0
    0.2170    0.2312   -0.0781 C   0  0  0  0  0  0  0  0  0  0  0  0
    0.6286   -1.0325   -0.3622 N   0  0  0  0  0  0  0  0  0  0  0  0
    1.9364   -1.3131   -0.1353 C   0  0  0  0  0  0  0  0  0  0  0  0
    2.8305   -0.3798    0.3630 C   0  0  0  0  0  0  0  0  0  0  0  0
    4.6336   -0.8743    0.6513 Br  0  0  0  0  0  0  0  0  0  0  0  0
    2.4591    0.8819    0.6513 N   0  0  0  0  0  0  0  0  0  0  0  0
    1.1507    1.1736    0.4196 C   0  0  0  0  0  0  0  0  0  0  0  0
    0.6497    2.9833    0.7565 Br  0  0  0  0  0  0  0  0  0  0  0  0
   -1.8907   -0.6756    1.2915 H   0  0  0  0  0  0  0  0  0  0  0  0
   -2.9275    0.6895    0.8381 H   0  0  0  0  0  0  0  0  0  0  0  0
   -1.4761    0.9811    1.7895 H   0  0  0  0  0  0  0  0  0  0  0  0
   -1.8165   -1.2543   -1.1929 H   0  0  0  0  0  0  0  0  0  0  0  0
   -1.1391   -0.0374   -2.3138 H   0  0  0  0  0  0  0  0  0  0  0  0
   -2.7338    0.2013   -1.6065 H   0  0  0  0  0  0  0  0  0  0  0  0
    2.2394   -2.3277   -0.3699 H   0  0  0  0  0  0  0  0  0  0  0  0
  1  2  1  0
  2  3  1  0
  2  4  1  0
  4  5  2  0
  5  6  1  0
  6  7  2  0
  7  8  1  0
  7  9  1  0
  9 10  2  0
 10 11  1  0
 10  4  1  0
  1 12  1  0
  1 13  1  0
  1 14  1  0
  3 15  1  0
  3 16  1  0
  3 17  1  0
  6 18  1  0
M  END
