
     RDKit          3D

 20 20  0  0  0  0  0  0  0  0999 V2000
   -2.6292   -1.2341    0.3513 C   0  0  0  0  0  0  0  0  0  0  0  0
   -1.2779   -0.6012    0.1769 C   0  0  0  0  0  0  0  0  0  0  0  0
   -0.2368   -1.3574    0.6027 N   0  0  0  0  0  0  0  0  0  0  0  0
    1.0212   -0.8733    0.4599 C   0  0  0  0  0  0  0  0  0  0  0  0
    2.1086   -1.7949    0.9343 C   0  0  0  0  0  0  0  0  0  0  0  0
    1.2814    0.3867   -0.0949 C   0  0  0  0  0  0  0  0  0  0  0  0
    3.0901    0.9625   -0.3123 Br  0  0  0  0  0  0  0  0  0  0  0  0
    0.2022    1.1996   -0.5049 C   0  0  0  0  0  0  0  0  0  0  0  0
    0.4381    2.5609   -1.1123 C   0  0  0  0  0  0  0  0  0  0  0  0
   -1.1009    0.6686   -0.3880 C   0  0  0  0  0  0  0  0  0  0  0  0
   -2.6227    1.6387   -1.0154 Br  0  0  0  0  0  0  0  0  0  0  0  0
   -3.1136   -1.3838   -0.6185 H   0  0  0  0  0  0  0  0  0  0  0  0
   -3.2649   -0.6174    0.9939 H   0  0  0  0  0  0  0  0  0  0  0  0
   -2.5373   -2.2166    0.8275 H   0  0  0  0  0  0  0  0  0  0  0  0
    2.7630   -2.0795    0.1047 H   0  0  0  0  0  0  0  0  0  0  0  0
    2.6965   -1.3230    1.7275 H   0  0  0  0  0  0  0  0  0  0  0  0
    1.6820   -2.7160    1.3467 H   0  0  0  0  0  0  0  0  0  0  0  0
    1.3194    3.0542   -0.6933 H   0  0  0  0  0  0  0  0  0  0  0  0
    0.5607    2.4708   -2.1961 H   0  0  0  0  0  0  0  0  0  0  0  0
   -0.3800    3.2554   -0.9023 H   0  0  0  0  0  0  0  0  0  0  0  0
  1  2  1  0
  2  3  2  0
  3  4  1  0
  4  5  1  0
  4  6  2  0
  6  7  1  0
  6  8  1  0
  8  9  1  0
  8 10  2  0
 10 11  1  0
 10  2  1  0
  1 12  1  0
  1 13  1  0
  1 14  1  0
  5 15  1  0
  5 16  1  0
  5 17  1  0
  9 18  1  0
  9 19  1  0
  9 20  1  0
M  END
