
     RDKit          3D

 14 14  0  0  0  0  0  0  0  0999 V2000
    2.3747    0.0408    0.0250 N   0  0  0  0  0  0  0  0  0  0  0  0
    0.9781    0.0091    0.1118 C   0  0  0  0  0  0  0  0  0  0  0  0
    0.2873   -1.1870   -0.1016 C   0  0  0  0  0  0  0  0  0  0  0  0
   -1.1090   -1.1996   -0.1349 C   0  0  0  0  0  0  0  0  0  0  0  0
   -2.0238   -2.8360   -0.3852 Br  0  0  0  0  0  0  0  0  0  0  0  0
   -1.8343   -0.0199    0.0027 C   0  0  0  0  0  0  0  0  0  0  0  0
   -1.1448    1.1793    0.1548 C   0  0  0  0  0  0  0  0  0  0  0  0
   -2.1086    2.8001    0.3012 Br  0  0  0  0  0  0  0  0  0  0  0  0
    0.2514    1.2005    0.1892 C   0  0  0  0  0  0  0  0  0  0  0  0
    2.8045    0.8415    0.4786 H   0  0  0  0  0  0  0  0  0  0  0  0
    2.8297   -0.8323    0.2747 H   0  0  0  0  0  0  0  0  0  0  0  0
    0.8395   -2.1124   -0.2418 H   0  0  0  0  0  0  0  0  0  0  0  0
   -2.9200   -0.0327   -0.0267 H   0  0  0  0  0  0  0  0  0  0  0  0
    0.7754    2.1485    0.2771 H   0  0  0  0  0  0  0  0  0  0  0  0
  1  2  1  0
  2  3  2  0
  3  4  1  0
  4  5  1  0
  4  6  2  0
  6  7  1  0
  7  8  1  0
  7  9  2  0
  9  2  1  0
  1 10  1  0
  1 11  1  0
  3 12  1  0
  6 13  1  0
  9 14  1  0
M  END
