
     RDKit          3D

 14 14  0  0  0  0  0  0  0  0999 V2000
    2.6142   -1.4521    1.1807 O   0  0  0  0  0  0  0  0  0  0  0  0
    2.2741   -0.6922    0.2821 C   0  0  0  0  0  0  0  0  0  0  0  0
    0.8721   -0.2764    0.1225 C   0  0  0  0  0  0  0  0  0  0  0  0
   -0.1113   -0.7437    1.0007 C   0  0  0  0  0  0  0  0  0  0  0  0
   -1.4322   -0.3330    0.8255 C   0  0  0  0  0  0  0  0  0  0  0  0
   -2.7703   -0.9573    2.0054 Br  0  0  0  0  0  0  0  0  0  0  0  0
   -1.7781    0.5346   -0.2119 C   0  0  0  0  0  0  0  0  0  0  0  0
   -0.7869    0.9937   -1.0816 C   0  0  0  0  0  0  0  0  0  0  0  0
   -1.2604    2.1691   -2.4859 Br  0  0  0  0  0  0  0  0  0  0  0  0
    0.5370    0.5891   -0.9153 C   0  0  0  0  0  0  0  0  0  0  0  0
    1.4897    1.0303   -1.7511 F   0  0  0  0  0  0  0  0  0  0  0  0
    3.0053   -0.2917   -0.4401 H   0  0  0  0  0  0  0  0  0  0  0  0
    0.1577   -1.4203    1.8099 H   0  0  0  0  0  0  0  0  0  0  0  0
   -2.8110    0.8497   -0.3410 H   0  0  0  0  0  0  0  0  0  0  0  0
  1  2  2  0
  2  3  1  0
  3  4  2  0
  4  5  1  0
  5  6  1  0
  5  7  2  0
  7  8  1  0
  8  9  1  0
  8 10  2  0
 10 11  1  0
 10  3  1  0
  2 12  1  0
  4 13  1  0
  7 14  1  0
M  END
