
     RDKit          3D

 24 24  0  0  0  0  0  0  0  0999 V2000
   -1.9850   -0.9574    1.0266 C   0  0  0  0  0  0  0  0  0  0  0  0
   -1.7386   -0.1255   -0.2294 C   0  0  0  0  0  0  0  0  0  0  0  0
   -2.8809   -0.3379   -1.2201 C   0  0  0  0  0  0  0  0  0  0  0  0
   -0.5258   -0.5364   -0.8897 O   0  0  0  0  0  0  0  0  0  0  0  0
    0.5859    0.1452   -0.4691 C   0  0  0  0  0  0  0  0  0  0  0  0
    0.8511    1.4501   -0.9203 C   0  0  0  0  0  0  0  0  0  0  0  0
   -0.2562    2.3404   -2.1841 Br  0  0  0  0  0  0  0  0  0  0  0  0
    1.9903    2.1364   -0.4879 C   0  0  0  0  0  0  0  0  0  0  0  0
    2.8873    1.5101    0.3705 C   0  0  0  0  0  0  0  0  0  0  0  0
    4.4279    2.4359    0.9553 Br  0  0  0  0  0  0  0  0  0  0  0  0
    2.6742    0.1973    0.7821 C   0  0  0  0  0  0  0  0  0  0  0  0
    1.5338   -0.4951    0.3472 C   0  0  0  0  0  0  0  0  0  0  0  0
    1.4250   -1.9119    0.7804 C   0  0  0  0  0  0  0  0  0  0  0  0
    0.5580   -2.6913    0.4140 O   0  0  0  0  0  0  0  0  0  0  0  0
   -2.9348   -0.6853    1.4982 H   0  0  0  0  0  0  0  0  0  0  0  0
   -2.0083   -2.0271    0.7938 H   0  0  0  0  0  0  0  0  0  0  0  0
   -1.1883   -0.8027    1.7606 H   0  0  0  0  0  0  0  0  0  0  0  0
   -1.7112    0.9349    0.0501 H   0  0  0  0  0  0  0  0  0  0  0  0
   -2.9449   -1.3887   -1.5244 H   0  0  0  0  0  0  0  0  0  0  0  0
   -2.7151    0.2416   -2.1338 H   0  0  0  0  0  0  0  0  0  0  0  0
   -3.8416   -0.0389   -0.7896 H   0  0  0  0  0  0  0  0  0  0  0  0
    2.1838    3.1494   -0.8336 H   0  0  0  0  0  0  0  0  0  0  0  0
    3.4040   -0.2878    1.4267 H   0  0  0  0  0  0  0  0  0  0  0  0
    2.2093   -2.2553    1.4767 H   0  0  0  0  0  0  0  0  0  0  0  0
  1  2  1  0
  2  3  1  0
  2  4  1  0
  4  5  1  0
  5  6  2  0
  6  7  1  0
  6  8  1  0
  8  9  2  0
  9 10  1  0
  9 11  1  0
 11 12  2  0
 12 13  1  0
 13 14  2  0
 12  5  1  0
  1 15  1  0
  1 16  1  0
  1 17  1  0
  2 18  1  0
  3 19  1  0
  3 20  1  0
  3 21  1  0
  8 22  1  0
 11 23  1  0
 13 24  1  0
M  END
