
     RDKit          3D

 15 15  0  0  0  0  0  0  0  0999 V2000
   -1.9228    0.2303    0.8720 C   0  0  0  0  0  0  0  0  0  0  0  0
   -0.5998   -0.0856    0.2267 C   0  0  0  0  0  0  0  0  0  0  0  0
   -0.2124   -1.4061   -0.0606 C   0  0  0  0  0  0  0  0  0  0  0  0
   -1.2889   -2.9204    0.3236 Br  0  0  0  0  0  0  0  0  0  0  0  0
    1.0316   -1.6387   -0.6430 C   0  0  0  0  0  0  0  0  0  0  0  0
    1.9209   -0.6700   -0.9471 N   0  0  0  0  0  0  0  0  0  0  0  0
    1.5570    0.5862   -0.6430 C   0  0  0  0  0  0  0  0  0  0  0  0
    2.5018    1.5239   -0.9510 O   0  0  0  0  0  0  0  0  0  0  0  0
    0.3342    0.9301   -0.0580 C   0  0  0  0  0  0  0  0  0  0  0  0
    0.0011    2.7605    0.3492 Br  0  0  0  0  0  0  0  0  0  0  0  0
   -2.6807   -0.5317    0.6727 H   0  0  0  0  0  0  0  0  0  0  0  0
   -2.3505    1.1572    0.4777 H   0  0  0  0  0  0  0  0  0  0  0  0
   -1.7979    0.3232    1.9553 H   0  0  0  0  0  0  0  0  0  0  0  0
    1.3650   -2.6447   -0.8858 H   0  0  0  0  0  0  0  0  0  0  0  0
    2.1412    2.3860   -0.6887 H   0  0  0  0  0  0  0  0  0  0  0  0
  1  2  1  0
  2  3  2  0
  3  4  1  0
  3  5  1  0
  5  6  2  0
  6  7  1  0
  7  8  1  0
  7  9  2  0
  9 10  1  0
  9  2  1  0
  1 11  1  0
  1 12  1  0
  1 13  1  0
  5 14  1  0
  8 15  1  0
M  END
