
     RDKit          3D

 29 29  0  0  0  0  0  0  0  0999 V2000
   -3.7771    0.3875    1.1209 C   0  0  0  0  0  0  0  0  0  0  0  0
   -2.5700    1.1867    0.6555 C   0  0  0  0  0  0  0  0  0  0  0  0
   -2.1391    0.8628   -0.7767 C   0  0  0  0  0  0  0  0  0  0  0  0
   -1.7325   -0.5921   -1.0336 C   0  0  0  0  0  0  0  0  0  0  0  0
   -0.6110   -1.1361   -0.1438 C   0  0  0  0  0  0  0  0  0  0  0  0
    0.7014   -0.3628   -0.2793 C   0  0  0  0  0  0  0  0  0  0  0  0
    1.8106   -1.0133    0.5455 C   0  0  0  0  0  0  0  0  0  0  0  0
    3.0620   -0.2948    0.4366 N   0  0  0  0  0  0  0  0  0  0  0  0
    3.3578    0.6852    1.3119 N   0  0  0  0  0  0  0  0  0  0  0  0
    4.5599    1.0741    0.8736 C   0  0  0  0  0  0  0  0  0  0  0  0
    5.5366    2.4567    1.7033 Br  0  0  0  0  0  0  0  0  0  0  0  0
    5.0277    0.3978   -0.2193 N   0  0  0  0  0  0  0  0  0  0  0  0
    4.0648   -0.4579   -0.4748 C   0  0  0  0  0  0  0  0  0  0  0  0
    4.1177   -1.6975   -1.9200 Br  0  0  0  0  0  0  0  0  0  0  0  0
   -4.0944    0.7291    2.1114 H   0  0  0  0  0  0  0  0  0  0  0  0
   -4.6198    0.5127    0.4338 H   0  0  0  0  0  0  0  0  0  0  0  0
   -3.5472   -0.6793    1.1965 H   0  0  0  0  0  0  0  0  0  0  0  0
   -2.8190    2.2537    0.7066 H   0  0  0  0  0  0  0  0  0  0  0  0
   -1.7375    1.0313    1.3502 H   0  0  0  0  0  0  0  0  0  0  0  0
   -2.9616    1.1138   -1.4585 H   0  0  0  0  0  0  0  0  0  0  0  0
   -1.3106    1.5263   -1.0516 H   0  0  0  0  0  0  0  0  0  0  0  0
   -2.6109   -1.2390   -0.9223 H   0  0  0  0  0  0  0  0  0  0  0  0
   -1.4255   -0.6821   -2.0834 H   0  0  0  0  0  0  0  0  0  0  0  0
   -0.4382   -2.1840   -0.4204 H   0  0  0  0  0  0  0  0  0  0  0  0
   -0.9316   -1.1445    0.9041 H   0  0  0  0  0  0  0  0  0  0  0  0
    0.9971   -0.3202   -1.3347 H   0  0  0  0  0  0  0  0  0  0  0  0
    0.5661    0.6733    0.0523 H   0  0  0  0  0  0  0  0  0  0  0  0
    1.9851   -2.0473    0.2299 H   0  0  0  0  0  0  0  0  0  0  0  0
    1.5390   -1.0403    1.6076 H   0  0  0  0  0  0  0  0  0  0  0  0
  1  2  1  0
  2  3  1  0
  3  4  1  0
  4  5  1  0
  5  6  1  0
  6  7  1  0
  7  8  1  0
  8  9  1  0
  9 10  2  0
 10 11  1  0
 10 12  1  0
 12 13  2  0
 13 14  1  0
 13  8  1  0
  1 15  1  0
  1 16  1  0
  1 17  1  0
  2 18  1  0
  2 19  1  0
  3 20  1  0
  3 21  1  0
  4 22  1  0
  4 23  1  0
  5 24  1  0
  5 25  1  0
  6 26  1  0
  6 27  1  0
  7 28  1  0
  7 29  1  0
M  END
