
     RDKit          3D

 16 16  0  0  0  0  0  0  0  0999 V2000
    2.7034   -0.2862    1.0595 O   0  0  0  0  0  0  0  0  0  0  0  0
    2.0137   -0.3424   -0.2473 B   0  0  0  0  0  0  0  0  0  0  0  0
    2.6915    0.3310   -1.3708 O   0  0  0  0  0  0  0  0  0  0  0  0
    0.4539   -0.1363   -0.1326 C   0  0  0  0  0  0  0  0  0  0  0  0
   -0.0643    1.1245   -0.1137 C   0  0  0  0  0  0  0  0  0  0  0  0
   -1.4397    1.2368   -0.0115 C   0  0  0  0  0  0  0  0  0  0  0  0
   -2.2082    2.9904    0.0183 Br  0  0  0  0  0  0  0  0  0  0  0  0
   -2.2097    0.0930    0.0653 C   0  0  0  0  0  0  0  0  0  0  0  0
   -1.6414   -1.1630    0.0426 C   0  0  0  0  0  0  0  0  0  0  0  0
   -2.7787   -2.6887    0.1532 Br  0  0  0  0  0  0  0  0  0  0  0  0
   -0.2766   -1.3265   -0.0581 C   0  0  0  0  0  0  0  0  0  0  0  0
    2.1798   -0.8575    1.7011 H   0  0  0  0  0  0  0  0  0  0  0  0
    3.0475    1.1719   -0.9940 H   0  0  0  0  0  0  0  0  0  0  0  0
    0.6176    1.9498   -0.1787 H   0  0  0  0  0  0  0  0  0  0  0  0
   -3.2817    0.1912    0.1447 H   0  0  0  0  0  0  0  0  0  0  0  0
    0.1929   -2.2881   -0.0781 H   0  0  0  0  0  0  0  0  0  0  0  0
  1  2  1  0
  2  3  1  0
  2  4  1  0
  4  5  2  0
  5  6  1  0
  6  7  1  0
  6  8  2  0
  8  9  1  0
  9 10  1  0
  9 11  2  0
 11  4  1  0
  1 12  1  0
  3 13  1  0
  5 14  1  0
  8 15  1  0
 11 16  1  0
M  END
