
     RDKit          3D

 17 17  0  0  0  0  0  0  0  0999 V2000
    1.9669   -0.3329    0.9072 C   0  0  0  0  0  0  0  0  0  0  0  0
    0.5779   -0.3326    0.3314 C   0  0  0  0  0  0  0  0  0  0  0  0
   -0.1807   -1.5124    0.3431 C   0  0  0  0  0  0  0  0  0  0  0  0
   -1.4733   -1.5270   -0.1886 C   0  0  0  0  0  0  0  0  0  0  0  0
   -2.4741   -3.1314   -0.1600 Br  0  0  0  0  0  0  0  0  0  0  0  0
   -2.0357   -0.3753   -0.7400 C   0  0  0  0  0  0  0  0  0  0  0  0
   -1.3005    0.8123   -0.7634 C   0  0  0  0  0  0  0  0  0  0  0  0
   -2.1280    2.3401   -1.5286 Br  0  0  0  0  0  0  0  0  0  0  0  0
   -0.0067    0.8214   -0.2298 C   0  0  0  0  0  0  0  0  0  0  0  0
    0.7569    2.0492   -0.2526 N   0  0  0  0  0  4  0  0  0  0  0  0
    0.6554    2.7897    0.7337 O   0  0  0  0  0  0  0  0  0  0  0  0
    1.4742    2.2437   -1.2421 O   0  0  0  0  0  1  0  0  0  0  0  0
    2.0358    0.3746    1.7395 H   0  0  0  0  0  0  0  0  0  0  0  0
    2.6994   -0.0679    0.1382 H   0  0  0  0  0  0  0  0  0  0  0  0
    2.2395   -1.3210    1.2932 H   0  0  0  0  0  0  0  0  0  0  0  0
    0.2363   -2.4245    0.7679 H   0  0  0  0  0  0  0  0  0  0  0  0
   -3.0433   -0.4061   -1.1491 H   0  0  0  0  0  0  0  0  0  0  0  0
  1  2  1  0
  2  3  2  0
  3  4  1  0
  4  5  1  0
  4  6  2  0
  6  7  1  0
  7  8  1  0
  7  9  2  0
  9 10  1  0
 10 11  2  0
 10 12  1  0
  9  2  1  0
  1 13  1  0
  1 14  1  0
  1 15  1  0
  3 16  1  0
  6 17  1  0
M  CHG  2  10   1  12  -1
M  END
