
     RDKit          3D

 18 18  0  0  0  0  0  0  0  0999 V2000
   -2.2918   -0.1567    1.3969 O   0  0  0  0  0  0  0  0  0  0  0  0
   -2.3908    0.5364    0.3991 C   0  0  0  0  0  0  0  0  0  0  0  0
   -3.5683    1.1272    0.1017 O   0  0  0  0  0  0  0  0  0  0  0  0
   -1.3296    0.8580   -0.6244 C   0  0  0  0  0  0  0  0  0  0  0  0
    0.0088    0.2191   -0.3357 C   0  0  0  0  0  0  0  0  0  0  0  0
    0.9587    0.8823    0.4554 C   0  0  0  0  0  0  0  0  0  0  0  0
    2.1867    0.2781    0.7324 C   0  0  0  0  0  0  0  0  0  0  0  0
    3.4572    1.1897    1.7962 Br  0  0  0  0  0  0  0  0  0  0  0  0
    2.4862   -0.9876    0.2349 C   0  0  0  0  0  0  0  0  0  0  0  0
    1.5410   -1.6509   -0.5434 C   0  0  0  0  0  0  0  0  0  0  0  0
    1.9299   -3.3730   -1.2216 Br  0  0  0  0  0  0  0  0  0  0  0  0
    0.3086   -1.0596   -0.8289 C   0  0  0  0  0  0  0  0  0  0  0  0
   -4.1629    0.8451    0.8292 H   0  0  0  0  0  0  0  0  0  0  0  0
   -1.6844    0.5261   -1.6074 H   0  0  0  0  0  0  0  0  0  0  0  0
   -1.2088    1.9469   -0.6677 H   0  0  0  0  0  0  0  0  0  0  0  0
    0.7383    1.8682    0.8597 H   0  0  0  0  0  0  0  0  0  0  0  0
    3.4425   -1.4533    0.4550 H   0  0  0  0  0  0  0  0  0  0  0  0
   -0.4214   -1.5961   -1.4315 H   0  0  0  0  0  0  0  0  0  0  0  0
  1  2  2  0
  2  3  1  0
  2  4  1  0
  4  5  1  0
  5  6  2  0
  6  7  1  0
  7  8  1  0
  7  9  2  0
  9 10  1  0
 10 11  1  0
 10 12  2  0
 12  5  1  0
  3 13  1  0
  4 14  1  0
  4 15  1  0
  6 16  1  0
  9 17  1  0
 12 18  1  0
M  END
