
     RDKit          3D

 19 19  0  0  0  0  0  0  0  0999 V2000
   -2.1723    0.9268    1.5830 O   0  0  0  0  0  0  0  0  0  0  0  0
   -2.6047    0.5052    0.5241 C   0  0  0  0  0  0  0  0  0  0  0  0
   -3.9350    0.4954    0.2928 O   0  0  0  0  0  0  0  0  0  0  0  0
   -1.8274   -0.0291   -0.6540 C   0  0  0  0  0  0  0  0  0  0  0  0
   -0.3405   -0.1362   -0.4043 C   0  0  0  0  0  0  0  0  0  0  0  0
    0.4924    0.9789   -0.5783 C   0  0  0  0  0  0  0  0  0  0  0  0
    1.8638    0.8794   -0.3290 C   0  0  0  0  0  0  0  0  0  0  0  0
    2.9500    2.4135   -0.5827 Br  0  0  0  0  0  0  0  0  0  0  0  0
    2.4215   -0.3287    0.0986 C   0  0  0  0  0  0  0  0  0  0  0  0
    3.7657   -0.4361    0.3425 O   0  0  0  0  0  0  0  0  0  0  0  0
    1.5966   -1.4400    0.2802 C   0  0  0  0  0  0  0  0  0  0  0  0
    2.2910   -3.1067    0.8629 Br  0  0  0  0  0  0  0  0  0  0  0  0
    0.2227   -1.3446    0.0335 C   0  0  0  0  0  0  0  0  0  0  0  0
   -4.3205    0.8619    1.1172 H   0  0  0  0  0  0  0  0  0  0  0  0
   -2.0026    0.6298   -1.5127 H   0  0  0  0  0  0  0  0  0  0  0  0
   -2.2244   -1.0184   -0.9108 H   0  0  0  0  0  0  0  0  0  0  0  0
    0.0679    1.9273   -0.9017 H   0  0  0  0  0  0  0  0  0  0  0  0
    4.1677    0.4372    0.1857 H   0  0  0  0  0  0  0  0  0  0  0  0
   -0.4120   -2.2155    0.1863 H   0  0  0  0  0  0  0  0  0  0  0  0
  1  2  2  0
  2  3  1  0
  2  4  1  0
  4  5  1  0
  5  6  2  0
  6  7  1  0
  7  8  1  0
  7  9  2  0
  9 10  1  0
  9 11  1  0
 11 12  1  0
 11 13  2  0
 13  5  1  0
  3 14  1  0
  4 15  1  0
  4 16  1  0
  6 17  1  0
 10 18  1  0
 13 19  1  0
M  END
