
     RDKit          3D

 14 14  0  0  0  0  0  0  0  0999 V2000
    1.9687    0.2765    0.0423 C   0  0  0  0  0  0  0  0  0  0  0  0
    0.4760    0.0870   -0.0142 C   0  0  0  0  0  0  0  0  0  0  0  0
   -0.4138    1.1678    0.1143 C   0  0  0  0  0  0  0  0  0  0  0  0
    0.1484    2.9615    0.3699 Br  0  0  0  0  0  0  0  0  0  0  0  0
   -1.7863    0.9290    0.0718 C   0  0  0  0  0  0  0  0  0  0  0  0
   -2.3416   -0.2927   -0.0729 N   0  0  0  0  0  0  0  0  0  0  0  0
   -1.4811   -1.3284   -0.1659 C   0  0  0  0  0  0  0  0  0  0  0  0
   -2.0303   -2.5476   -0.2879 F   0  0  0  0  0  0  0  0  0  0  0  0
   -0.0916   -1.1972   -0.1344 C   0  0  0  0  0  0  0  0  0  0  0  0
    0.9639   -2.7757   -0.2310 Br  0  0  0  0  0  0  0  0  0  0  0  0
    2.2770    1.2762   -0.2746 H   0  0  0  0  0  0  0  0  0  0  0  0
    2.4864   -0.4037   -0.6409 H   0  0  0  0  0  0  0  0  0  0  0  0
    2.3289    0.1063    1.0617 H   0  0  0  0  0  0  0  0  0  0  0  0
   -2.5046    1.7409    0.1618 H   0  0  0  0  0  0  0  0  0  0  0  0
  1  2  1  0
  2  3  2  0
  3  4  1  0
  3  5  1  0
  5  6  2  0
  6  7  1  0
  7  8  1  0
  7  9  2  0
  9 10  1  0
  9  2  1  0
  1 11  1  0
  1 12  1  0
  1 13  1  0
  5 14  1  0
M  END
