
     RDKit          3D

 17 17  0  0  0  0  0  0  0  0999 V2000
   -2.6679    0.3010    0.1874 C   0  0  0  0  0  0  0  0  0  0  0  0
   -1.1738    0.1391    0.0898 C   0  0  0  0  0  0  0  0  0  0  0  0
   -0.4071    0.9203   -0.7946 C   0  0  0  0  0  0  0  0  0  0  0  0
   -1.1855    2.2178   -1.9516 Br  0  0  0  0  0  0  0  0  0  0  0  0
    0.9832    0.7602   -0.8888 C   0  0  0  0  0  0  0  0  0  0  0  0
    1.6533   -0.1643   -0.0917 C   0  0  0  0  0  0  0  0  0  0  0  0
    3.0200   -0.3988   -0.2760 N   0  0  0  0  0  0  0  0  0  0  0  0
    0.8965   -1.0083    0.7172 C   0  0  0  0  0  0  0  0  0  0  0  0
   -0.4942   -0.8551    0.8177 C   0  0  0  0  0  0  0  0  0  0  0  0
   -1.3966   -2.0863    1.9570 Br  0  0  0  0  0  0  0  0  0  0  0  0
   -3.1634   -0.3416   -0.5470 H   0  0  0  0  0  0  0  0  0  0  0  0
   -2.9802    1.3362    0.0230 H   0  0  0  0  0  0  0  0  0  0  0  0
   -3.0430    0.0564    1.1852 H   0  0  0  0  0  0  0  0  0  0  0  0
    1.5481    1.3616   -1.5972 H   0  0  0  0  0  0  0  0  0  0  0  0
    3.5394    0.4042   -0.6182 H   0  0  0  0  0  0  0  0  0  0  0  0
    3.4783   -0.8428    0.5142 H   0  0  0  0  0  0  0  0  0  0  0  0
    1.3931   -1.7997    1.2736 H   0  0  0  0  0  0  0  0  0  0  0  0
  1  2  1  0
  2  3  2  0
  3  4  1  0
  3  5  1  0
  5  6  2  0
  6  7  1  0
  6  8  1  0
  8  9  2  0
  9 10  1  0
  9  2  1  0
  1 11  1  0
  1 12  1  0
  1 13  1  0
  5 14  1  0
  7 15  1  0
  7 16  1  0
  8 17  1  0
M  END
