
     RDKit          3D

 12 12  0  0  0  0  0  0  0  0999 V2000
   -2.1349   -1.4565    0.1875 O   0  0  0  0  0  0  0  0  0  0  0  0
   -0.9450   -0.7918    0.1059 C   0  0  0  0  0  0  0  0  0  0  0  0
    0.1391   -1.5781    0.2484 N   0  0  0  0  0  0  0  0  0  0  0  0
    1.3448   -0.9663    0.1754 C   0  0  0  0  0  0  0  0  0  0  0  0
    1.5045    0.3962   -0.0339 C   0  0  0  0  0  0  0  0  0  0  0  0
    3.2247    1.1623   -0.1215 Br  0  0  0  0  0  0  0  0  0  0  0  0
    0.3702    1.1886   -0.1783 C   0  0  0  0  0  0  0  0  0  0  0  0
   -0.8814    0.5827   -0.1071 C   0  0  0  0  0  0  0  0  0  0  0  0
   -2.4432    1.6301   -0.2991 Br  0  0  0  0  0  0  0  0  0  0  0  0
   -2.8377   -0.7970    0.0717 H   0  0  0  0  0  0  0  0  0  0  0  0
    2.1981   -1.6283    0.2943 H   0  0  0  0  0  0  0  0  0  0  0  0
    0.4608    2.2581   -0.3433 H   0  0  0  0  0  0  0  0  0  0  0  0
  1  2  1  0
  2  3  2  0
  3  4  1  0
  4  5  2  0
  5  6  1  0
  5  7  1  0
  7  8  2  0
  8  9  1  0
  8  2  1  0
  1 10  1  0
  4 11  1  0
  7 12  1  0
M  END
