
     RDKit          3D

 12 12  0  0  0  0  0  0  0  0999 V2000
   -0.3350    2.6771    0.0203 O   0  0  0  0  0  1  0  0  0  0  0  0
   -0.1776    1.4193    0.0108 N   0  0  0  0  0  4  0  0  0  0  0  0
   -1.2716    0.5755   -0.0013 C   0  0  0  0  0  0  0  0  0  0  0  0
   -1.1059   -0.8039   -0.0118 C   0  0  0  0  0  0  0  0  0  0  0  0
   -2.6224   -1.9279   -0.0281 Br  0  0  0  0  0  0  0  0  0  0  0  0
    0.1696   -1.3552   -0.0103 C   0  0  0  0  0  0  0  0  0  0  0  0
    1.2699   -0.5067    0.0019 C   0  0  0  0  0  0  0  0  0  0  0  0
    3.0166   -1.2225    0.0043 Br  0  0  0  0  0  0  0  0  0  0  0  0
    1.0906    0.8709    0.0123 C   0  0  0  0  0  0  0  0  0  0  0  0
   -2.2157    1.0979   -0.0015 H   0  0  0  0  0  0  0  0  0  0  0  0
    0.3046   -2.4344   -0.0185 H   0  0  0  0  0  0  0  0  0  0  0  0
    1.8769    1.6098    0.0220 H   0  0  0  0  0  0  0  0  0  0  0  0
  1  2  1  0
  2  3  2  0
  3  4  1  0
  4  5  1  0
  4  6  2  0
  6  7  1  0
  7  8  1  0
  7  9  2  0
  9  2  1  0
  3 10  1  0
  6 11  1  0
  9 12  1  0
M  CHG  2   1  -1   2   1
M  END
