
     RDKit          3D

 15 15  0  0  0  0  0  0  0  0999 V2000
    2.8732    0.9634   -0.2661 O   0  0  0  0  0  0  0  0  0  0  0  0
    2.1451   -0.0050   -0.1569 C   0  0  0  0  0  0  0  0  0  0  0  0
    2.6393   -1.2540   -0.1211 O   0  0  0  0  0  0  0  0  0  0  0  0
    0.6674    0.0310   -0.0507 C   0  0  0  0  0  0  0  0  0  0  0  0
   -0.0953   -1.1370    0.0726 C   0  0  0  0  0  0  0  0  0  0  0  0
   -1.4837   -1.0455    0.1690 C   0  0  0  0  0  0  0  0  0  0  0  0
   -2.5147   -2.6219    0.3356 Br  0  0  0  0  0  0  0  0  0  0  0  0
   -2.1208    0.1940    0.1442 C   0  0  0  0  0  0  0  0  0  0  0  0
   -1.3550    1.3517    0.0213 C   0  0  0  0  0  0  0  0  0  0  0  0
   -2.2091    3.0381   -0.0134 Br  0  0  0  0  0  0  0  0  0  0  0  0
    0.0339    1.2799   -0.0763 C   0  0  0  0  0  0  0  0  0  0  0  0
    3.6089   -1.1290   -0.1994 H   0  0  0  0  0  0  0  0  0  0  0  0
    0.3881   -2.1108    0.0933 H   0  0  0  0  0  0  0  0  0  0  0  0
   -3.2033    0.2569    0.2199 H   0  0  0  0  0  0  0  0  0  0  0  0
    0.6260    2.1882   -0.1721 H   0  0  0  0  0  0  0  0  0  0  0  0
  1  2  2  0
  2  3  1  0
  2  4  1  0
  4  5  2  0
  5  6  1  0
  6  7  1  0
  6  8  2  0
  8  9  1  0
  9 10  1  0
  9 11  2  0
 11  4  1  0
  3 12  1  0
  5 13  1  0
  8 14  1  0
 11 15  1  0
M  END
