
     RDKit          3D

 17 17  0  0  0  0  0  0  0  0999 V2000
   -2.7311    0.0112   -0.3733 C   0  0  0  0  0  0  0  0  0  0  0  0
   -1.2466   -0.0038   -0.1458 C   0  0  0  0  0  0  0  0  0  0  0  0
   -0.5950    1.1361    0.3470 C   0  0  0  0  0  0  0  0  0  0  0  0
    0.7916    1.1395    0.5320 C   0  0  0  0  0  0  0  0  0  0  0  0
    1.5787    2.7273    1.2142 Br  0  0  0  0  0  0  0  0  0  0  0  0
    1.5223   -0.0065    0.2087 C   0  0  0  0  0  0  0  0  0  0  0  0
    2.9487   -0.0097    0.3964 N   0  0  0  0  0  4  0  0  0  0  0  0
    3.6404    0.3679   -0.5582 O   0  0  0  0  0  0  0  0  0  0  0  0
    3.3681   -0.3898    1.4972 O   0  0  0  0  0  1  0  0  0  0  0  0
    0.8956   -1.1479   -0.2975 C   0  0  0  0  0  0  0  0  0  0  0  0
    1.8270   -2.7349   -0.7665 Br  0  0  0  0  0  0  0  0  0  0  0  0
   -0.4916   -1.1381   -0.4777 C   0  0  0  0  0  0  0  0  0  0  0  0
   -2.9503    0.3680   -1.3843 H   0  0  0  0  0  0  0  0  0  0  0  0
   -3.1549   -0.9910   -0.2509 H   0  0  0  0  0  0  0  0  0  0  0  0
   -3.2301    0.6650    0.3497 H   0  0  0  0  0  0  0  0  0  0  0  0
   -1.1783    2.0243    0.5874 H   0  0  0  0  0  0  0  0  0  0  0  0
   -0.9946   -2.0176   -0.8783 H   0  0  0  0  0  0  0  0  0  0  0  0
  1  2  1  0
  2  3  2  0
  3  4  1  0
  4  5  1  0
  4  6  2  0
  6  7  1  0
  7  8  2  0
  7  9  1  0
  6 10  1  0
 10 11  1  0
 10 12  2  0
 12  2  1  0
  1 13  1  0
  1 14  1  0
  1 15  1  0
  3 16  1  0
 12 17  1  0
M  CHG  2   7   1   9  -1
M  END
