
     RDKit          3D

 11 11  0  0  0  0  0  0  0  0999 V2000
   -2.2543    0.8801   -0.3194 O   0  0  0  0  0  0  0  0  0  0  0  0
   -1.0223    0.3444   -0.1350 C   0  0  0  0  0  0  0  0  0  0  0  0
   -0.0344    1.2578   -0.2282 N   0  0  0  0  0  0  0  0  0  0  0  0
    1.2131    0.7531   -0.0483 C   0  0  0  0  0  0  0  0  0  0  0  0
    1.4532   -0.5925    0.2104 C   0  0  0  0  0  0  0  0  0  0  0  0
    3.2321   -1.1927    0.4456 Br  0  0  0  0  0  0  0  0  0  0  0  0
    0.4537   -1.4986    0.3014 N   0  0  0  0  0  0  0  0  0  0  0  0
   -0.7982   -1.0074    0.1236 C   0  0  0  0  0  0  0  0  0  0  0  0
   -2.2402   -2.2322    0.2402 Br  0  0  0  0  0  0  0  0  0  0  0  0
   -2.0244    1.8147   -0.4707 H   0  0  0  0  0  0  0  0  0  0  0  0
    2.0216    1.4733   -0.1196 H   0  0  0  0  0  0  0  0  0  0  0  0
  1  2  1  0
  2  3  2  0
  3  4  1  0
  4  5  2  0
  5  6  1  0
  5  7  1  0
  7  8  2  0
  8  9  1  0
  8  2  1  0
  1 10  1  0
  4 11  1  0
M  END
