
     RDKit          3D

 19 19  0  0  0  0  0  0  0  0999 V2000
    3.4719   -0.2762    0.5056 C   0  0  0  0  0  0  0  0  0  0  0  0
    2.3507   -0.8809   -0.1296 O   0  0  0  0  0  0  0  0  0  0  0  0
    1.1987   -0.1210   -0.0690 C   0  0  0  0  0  0  0  0  0  0  0  0
    1.2415    1.0648    0.5864 N   0  0  0  0  0  0  0  0  0  0  0  0
    0.1034    1.7959    0.6071 C   0  0  0  0  0  0  0  0  0  0  0  0
   -1.0881    1.3909    0.0266 C   0  0  0  0  0  0  0  0  0  0  0  0
   -2.5830    2.5488    0.0972 Br  0  0  0  0  0  0  0  0  0  0  0  0
   -1.1219    0.1458   -0.6048 C   0  0  0  0  0  0  0  0  0  0  0  0
   -2.2751   -0.2820   -1.2174 O   0  0  0  0  0  0  0  0  0  0  0  0
   -3.0731   -1.0529   -0.3149 C   0  0  0  0  0  0  0  0  0  0  0  0
    0.0498   -0.6173   -0.6865 C   0  0  0  0  0  0  0  0  0  0  0  0
    0.0861   -2.2653   -1.6353 Br  0  0  0  0  0  0  0  0  0  0  0  0
    3.7354    0.6733    0.0270 H   0  0  0  0  0  0  0  0  0  0  0  0
    4.3241   -0.9531    0.3914 H   0  0  0  0  0  0  0  0  0  0  0  0
    3.2956   -0.1422    1.5785 H   0  0  0  0  0  0  0  0  0  0  0  0
    0.1890    2.7516    1.1178 H   0  0  0  0  0  0  0  0  0  0  0  0
   -3.9614   -1.3877   -0.8587 H   0  0  0  0  0  0  0  0  0  0  0  0
   -2.5388   -1.9401    0.0400 H   0  0  0  0  0  0  0  0  0  0  0  0
   -3.4049   -0.4525    0.5384 H   0  0  0  0  0  0  0  0  0  0  0  0
  1  2  1  0
  2  3  1  0
  3  4  2  0
  4  5  1  0
  5  6  2  0
  6  7  1  0
  6  8  1  0
  8  9  1  0
  9 10  1  0
  8 11  2  0
 11 12  1  0
 11  3  1  0
  1 13  1  0
  1 14  1  0
  1 15  1  0
  5 16  1  0
 10 17  1  0
 10 18  1  0
 10 19  1  0
M  END
