
     RDKit          3D

 10 10  0  0  0  0  0  0  0  0999 V2000
   -2.5790    0.7938    1.4043 Cl  0  0  0  0  0  0  0  0  0  0  0  0
   -1.1288    0.3418    0.6024 C   0  0  0  0  0  0  0  0  0  0  0  0
   -0.0133    0.6206    1.3232 N   0  0  0  0  0  0  0  0  0  0  0  0
    1.1576    0.2807    0.7294 C   0  0  0  0  0  0  0  0  0  0  0  0
    1.2190   -0.3105   -0.5257 C   0  0  0  0  0  0  0  0  0  0  0  0
    2.9009   -0.7485   -1.2713 Br  0  0  0  0  0  0  0  0  0  0  0  0
    0.1069   -0.5879   -1.2430 N   0  0  0  0  0  0  0  0  0  0  0  0
   -1.0747   -0.2520   -0.6590 C   0  0  0  0  0  0  0  0  0  0  0  0
   -2.6404   -0.6402   -1.6635 Br  0  0  0  0  0  0  0  0  0  0  0  0
    2.0517    0.5022    1.3031 H   0  0  0  0  0  0  0  0  0  0  0  0
  1  2  1  0
  2  3  2  0
  3  4  1  0
  4  5  2  0
  5  6  1  0
  5  7  1  0
  7  8  2  0
  8  9  1  0
  8  2  1  0
  4 10  1  0
M  END
