
     RDKit          3D

 11 11  0  0  0  0  0  0  0  0999 V2000
    0.5967    2.7479   -0.1142 Cl  0  0  0  0  0  0  0  0  0  0  0  0
    0.2287    1.0532   -0.0438 C   0  0  0  0  0  0  0  0  0  0  0  0
    1.2568    0.1051    0.0044 C   0  0  0  0  0  0  0  0  0  0  0  0
    3.1008    0.5458   -0.0016 Br  0  0  0  0  0  0  0  0  0  0  0  0
    0.9086   -1.2377    0.0597 C   0  0  0  0  0  0  0  0  0  0  0  0
   -0.3665   -1.6876    0.0701 N   0  0  0  0  0  0  0  0  0  0  0  0
   -1.3404   -0.7508    0.0229 C   0  0  0  0  0  0  0  0  0  0  0  0
   -1.1004    0.6153   -0.0343 C   0  0  0  0  0  0  0  0  0  0  0  0
   -2.5960    1.7790   -0.0950 Br  0  0  0  0  0  0  0  0  0  0  0  0
    1.6633   -2.0197    0.0988 H   0  0  0  0  0  0  0  0  0  0  0  0
   -2.3517   -1.1505    0.0329 H   0  0  0  0  0  0  0  0  0  0  0  0
  1  2  1  0
  2  3  2  0
  3  4  1  0
  3  5  1  0
  5  6  2  0
  6  7  1  0
  7  8  2  0
  8  9  1  0
  8  2  1  0
  5 10  1  0
  7 11  1  0
M  END
