
     RDKit          3D

 12 12  0  0  0  0  0  0  0  0999 V2000
   -2.6948    0.6721   -0.2049 O   0  0  0  0  0  0  0  0  0  0  0  0
   -1.8793   -0.2275   -0.0606 C   0  0  0  0  0  0  0  0  0  0  0  0
   -2.3284   -1.4975    0.0686 O   0  0  0  0  0  0  0  0  0  0  0  0
   -0.4378   -0.1217   -0.0060 C   0  0  0  0  0  0  0  0  0  0  0  0
    0.5577   -1.5153    0.2051 S   0  0  0  0  0  0  0  0  0  0  0  0
    1.9749   -0.5941    0.1622 C   0  0  0  0  0  0  0  0  0  0  0  0
    3.7203   -1.3531    0.3331 Br  0  0  0  0  0  0  0  0  0  0  0  0
    1.7477    0.7459   -0.0068 C   0  0  0  0  0  0  0  0  0  0  0  0
    0.3533    1.0081   -0.1027 C   0  0  0  0  0  0  0  0  0  0  0  0
   -0.2433    2.7895   -0.3411 Br  0  0  0  0  0  0  0  0  0  0  0  0
   -3.3008   -1.3990    0.0117 H   0  0  0  0  0  0  0  0  0  0  0  0
    2.5307    1.4927   -0.0586 H   0  0  0  0  0  0  0  0  0  0  0  0
  1  2  2  0
  2  3  1  0
  2  4  1  0
  4  5  1  0
  5  6  1  0
  6  7  1  0
  6  8  2  0
  8  9  1  0
  9 10  1  0
  9  4  2  0
  3 11  1  0
  8 12  1  0
M  END
