
     RDKit          3D

 15 16  0  0  0  0  0  0  0  0999 V2000
    3.2263    2.0396    0.0336 Br  0  0  0  0  0  0  0  0  0  0  0  0
    1.7289    0.8822   -0.0079 C   0  0  0  0  0  0  0  0  0  0  0  0
    1.9268   -0.4868   -0.1896 C   0  0  0  0  0  0  0  0  0  0  0  0
    0.8424   -1.3702   -0.2252 C   0  0  0  0  0  0  0  0  0  0  0  0
   -0.4332   -0.8179   -0.0714 C   0  0  0  0  0  0  0  0  0  0  0  0
   -1.6776   -1.3952   -0.0586 N   0  0  0  0  0  0  0  0  0  0  0  0
   -2.6865   -0.5252    0.1163 N   0  0  0  0  0  0  0  0  0  0  0  0
   -2.0612    0.6485    0.2186 C   0  0  0  0  0  0  0  0  0  0  0  0
   -2.9801    2.2698    0.4798 Br  0  0  0  0  0  0  0  0  0  0  0  0
   -0.6563    0.5449    0.1112 C   0  0  0  0  0  0  0  0  0  0  0  0
    0.4463    1.4201    0.1446 C   0  0  0  0  0  0  0  0  0  0  0  0
    2.9335   -0.8830   -0.3062 H   0  0  0  0  0  0  0  0  0  0  0  0
    0.9937   -2.4357   -0.3665 H   0  0  0  0  0  0  0  0  0  0  0  0
   -1.9039   -2.3779   -0.1642 H   0  0  0  0  0  0  0  0  0  0  0  0
    0.3007    2.4869    0.2856 H   0  0  0  0  0  0  0  0  0  0  0  0
  1  2  1  0
  2  3  2  0
  3  4  1  0
  4  5  2  0
  5  6  1  0
  6  7  1  0
  7  8  2  0
  8  9  1  0
  8 10  1  0
 10 11  2  0
 11  2  1  0
 10  5  1  0
  3 12  1  0
  4 13  1  0
  6 14  1  0
 11 15  1  0
M  END
