
     RDKit          3D

 21 22  0  0  0  0  0  0  0  0999 V2000
   -1.0923    3.5393    1.7162 Cl  0  0  0  0  0  0  0  0  0  0  0  0
   -1.2388    1.8480    1.4376 C   0  0  0  0  0  0  0  0  0  0  0  0
   -2.4785    1.2295    1.5769 C   0  0  0  0  0  0  0  0  0  0  0  0
   -2.5957   -0.1420    1.3548 C   0  0  0  0  0  0  0  0  0  0  0  0
   -1.4743   -0.8916    0.9923 C   0  0  0  0  0  0  0  0  0  0  0  0
   -0.2221   -0.2759    0.8425 C   0  0  0  0  0  0  0  0  0  0  0  0
    0.9906   -1.0842    0.4507 C   0  0  0  0  0  0  0  0  0  0  0  0
    1.4980   -0.7003   -0.8538 N   0  0  0  0  0  0  0  0  0  0  0  0
    2.5737    0.1097   -0.9580 N   0  0  0  0  0  0  0  0  0  0  0  0
    2.7150    0.1882   -2.2855 C   0  0  0  0  0  0  0  0  0  0  0  0
    4.0736    1.2142   -3.0948 Br  0  0  0  0  0  0  0  0  0  0  0  0
    1.8113   -0.5371   -3.0110 N   0  0  0  0  0  0  0  0  0  0  0  0
    1.0576   -1.0873   -2.0870 C   0  0  0  0  0  0  0  0  0  0  0  0
   -0.4039   -2.2435   -2.4811 Br  0  0  0  0  0  0  0  0  0  0  0  0
   -0.1147    1.1056    1.0751 C   0  0  0  0  0  0  0  0  0  0  0  0
   -3.3542    1.8084    1.8584 H   0  0  0  0  0  0  0  0  0  0  0  0
   -3.5628   -0.6274    1.4648 H   0  0  0  0  0  0  0  0  0  0  0  0
   -1.5923   -1.9614    0.8276 H   0  0  0  0  0  0  0  0  0  0  0  0
    0.7724   -2.1574    0.4197 H   0  0  0  0  0  0  0  0  0  0  0  0
    1.7902   -0.9411    1.1873 H   0  0  0  0  0  0  0  0  0  0  0  0
    0.8472    1.6061    0.9703 H   0  0  0  0  0  0  0  0  0  0  0  0
  1  2  1  0
  2  3  2  0
  3  4  1  0
  4  5  2  0
  5  6  1  0
  6  7  1  0
  7  8  1  0
  8  9  1  0
  9 10  2  0
 10 11  1  0
 10 12  1  0
 12 13  2  0
 13 14  1  0
  6 15  2  0
 15  2  1  0
 13  8  1  0
  3 16  1  0
  4 17  1  0
  5 18  1  0
  7 19  1  0
  7 20  1  0
 15 21  1  0
M  END
