
     RDKit          3D

 13 13  0  0  0  0  0  0  0  0999 V2000
    2.7416   -1.2020    0.1198 O   0  0  0  0  0  0  0  0  0  0  0  0
    2.1063   -0.1567    0.1360 C   0  0  0  0  0  0  0  0  0  0  0  0
    0.6240   -0.0674    0.0391 C   0  0  0  0  0  0  0  0  0  0  0  0
    0.0099    1.1970    0.0693 C   0  0  0  0  0  0  0  0  0  0  0  0
    0.9291    2.8515    0.2273 Br  0  0  0  0  0  0  0  0  0  0  0  0
   -1.3760    1.2661   -0.0222 C   0  0  0  0  0  0  0  0  0  0  0  0
   -2.1790    0.1896   -0.1391 N   0  0  0  0  0  0  0  0  0  0  0  0
   -1.5702   -1.0158   -0.1663 C   0  0  0  0  0  0  0  0  0  0  0  0
   -0.1933   -1.2032   -0.0822 C   0  0  0  0  0  0  0  0  0  0  0  0
    0.3985   -3.0046   -0.1447 Br  0  0  0  0  0  0  0  0  0  0  0  0
    2.6641    0.7858    0.2284 H   0  0  0  0  0  0  0  0  0  0  0  0
   -1.9024    2.2180   -0.0039 H   0  0  0  0  0  0  0  0  0  0  0  0
   -2.2525   -1.8582   -0.2615 H   0  0  0  0  0  0  0  0  0  0  0  0
  1  2  2  0
  2  3  1  0
  3  4  2  0
  4  5  1  0
  4  6  1  0
  6  7  2  0
  7  8  1  0
  8  9  2  0
  9 10  1  0
  9  3  1  0
  2 11  1  0
  6 12  1  0
  8 13  1  0
M  END
