
     RDKit          3D

 11 11  0  0  0  0  0  0  0  0999 V2000
    2.4886   -1.9739   -0.0256 Cl  0  0  0  0  0  0  0  0  0  0  0  0
    1.1020   -0.9560   -0.0245 C   0  0  0  0  0  0  0  0  0  0  0  0
   -0.0449   -1.6359   -0.2678 N   0  0  0  0  0  0  0  0  0  0  0  0
   -1.1878   -0.9113   -0.2852 C   0  0  0  0  0  0  0  0  0  0  0  0
   -1.2314    0.4581   -0.0706 C   0  0  0  0  0  0  0  0  0  0  0  0
   -2.8703    1.3878   -0.1131 Br  0  0  0  0  0  0  0  0  0  0  0  0
   -0.0409    1.1346    0.1773 C   0  0  0  0  0  0  0  0  0  0  0  0
    1.1559    0.4166    0.2021 C   0  0  0  0  0  0  0  0  0  0  0  0
    2.7632    1.3577    0.5412 Br  0  0  0  0  0  0  0  0  0  0  0  0
   -2.0894   -1.4855   -0.4829 H   0  0  0  0  0  0  0  0  0  0  0  0
   -0.0450    2.2077    0.3490 H   0  0  0  0  0  0  0  0  0  0  0  0
  1  2  1  0
  2  3  2  0
  3  4  1  0
  4  5  2  0
  5  6  1  0
  5  7  1  0
  7  8  2  0
  8  9  1  0
  8  2  1  0
  4 10  1  0
  7 11  1  0
M  END
