
     RDKit          3D

 13 13  0  0  0  0  0  0  0  0999 V2000
    1.6955   -1.2181   -0.1839 N   0  0  0  0  0  0  0  0  0  0  0  0
    0.5772   -0.3593   -0.0911 C   0  0  0  0  0  0  0  0  0  0  0  0
   -0.3070   -0.2212   -1.1737 C   0  0  0  0  0  0  0  0  0  0  0  0
    0.0494   -1.0040   -2.8633 Br  0  0  0  0  0  0  0  0  0  0  0  0
   -1.4662    0.5255   -1.0123 C   0  0  0  0  0  0  0  0  0  0  0  0
   -1.8229    1.1182    0.1472 N   0  0  0  0  0  0  0  0  0  0  0  0
   -0.9886    0.9385    1.1977 C   0  0  0  0  0  0  0  0  0  0  0  0
   -1.5627    1.7174    2.6228 Cl  0  0  0  0  0  0  0  0  0  0  0  0
    0.1978    0.2077    1.1410 C   0  0  0  0  0  0  0  0  0  0  0  0
    1.3161   -0.0115    2.6683 Br  0  0  0  0  0  0  0  0  0  0  0  0
    2.4205   -1.0340    0.5063 H   0  0  0  0  0  0  0  0  0  0  0  0
    2.0579   -1.3293   -1.1283 H   0  0  0  0  0  0  0  0  0  0  0  0
   -2.1670    0.6700   -1.8307 H   0  0  0  0  0  0  0  0  0  0  0  0
  1  2  1  0
  2  3  2  0
  3  4  1  0
  3  5  1  0
  5  6  2  0
  6  7  1  0
  7  8  1  0
  7  9  2  0
  9 10  1  0
  9  2  1  0
  1 11  1  0
  1 12  1  0
  5 13  1  0
M  END
