
     RDKit          3D

 11 11  0  0  0  0  0  0  0  0999 V2000
   -2.3909   -0.6749   -0.8900 O   0  0  0  0  0  0  0  0  0  0  0  0
   -1.6166   -0.8183    0.0624 N   0  0  0  0  0  4  0  0  0  0  0  0
   -1.8118   -1.5162    1.0640 O   0  0  0  0  0  1  0  0  0  0  0  0
   -0.3864   -0.1161   -0.0013 C   0  0  0  0  0  0  0  0  0  0  0  0
   -0.1745    1.2479   -0.2581 C   0  0  0  0  0  0  0  0  0  0  0  0
   -1.5166    2.5369   -0.5504 Br  0  0  0  0  0  0  0  0  0  0  0  0
    1.1220    1.5795   -0.2400 N   0  0  0  0  0  0  0  0  0  0  0  0
    1.7385    0.4134    0.0257 N   0  0  0  0  0  0  0  0  0  0  0  0
    0.8768   -0.6331    0.1759 C   0  0  0  0  0  0  0  0  0  0  0  0
    1.4074   -2.4195    0.5238 Br  0  0  0  0  0  0  0  0  0  0  0  0
    2.7521    0.4005    0.0878 H   0  0  0  0  0  0  0  0  0  0  0  0
  1  2  2  0
  2  3  1  0
  2  4  1  0
  4  5  1  0
  5  6  1  0
  5  7  2  0
  7  8  1  0
  8  9  1  0
  9 10  1  0
  9  4  2  0
  8 11  1  0
M  CHG  2   2   1   3  -1
M  END
