
     RDKit          3D

 23 24  0  0  0  0  0  0  0  0999 V2000
   -2.7337   -2.0986    0.8652 C   0  0  0  0  0  0  0  0  0  0  0  0
   -1.6379   -1.1271    0.5275 C   0  0  0  0  0  0  0  0  0  0  0  0
   -0.4411   -1.7003    0.2482 N   0  0  0  0  0  0  0  0  0  0  0  0
    0.5978   -0.9485   -0.0886 C   0  0  0  0  0  0  0  0  0  0  0  0
    1.7248   -1.6000   -0.3712 N   0  0  0  0  0  0  0  0  0  0  0  0
    2.7995   -0.8855   -0.7350 C   0  0  0  0  0  0  0  0  0  0  0  0
    3.8810   -1.6622   -0.9969 O   0  0  0  0  0  0  0  0  0  0  0  0
    2.8324    0.4861   -0.8443 C   0  0  0  0  0  0  0  0  0  0  0  0
    4.3738    1.4361   -1.3717 Br  0  0  0  0  0  0  0  0  0  0  0  0
    1.6610    1.1673   -0.5469 C   0  0  0  0  0  0  0  0  0  0  0  0
    0.5010    0.4601   -0.1483 C   0  0  0  0  0  0  0  0  0  0  0  0
   -0.7419    1.0799    0.1835 C   0  0  0  0  0  0  0  0  0  0  0  0
   -0.8691    2.5843    0.1360 C   0  0  0  0  0  0  0  0  0  0  0  0
   -1.8350    0.2542    0.4980 C   0  0  0  0  0  0  0  0  0  0  0  0
   -3.5639    0.9736    0.8561 Br  0  0  0  0  0  0  0  0  0  0  0  0
   -2.3585   -3.1277    0.8439 H   0  0  0  0  0  0  0  0  0  0  0  0
   -3.1190   -1.9116    1.8723 H   0  0  0  0  0  0  0  0  0  0  0  0
   -3.5475   -2.0312    0.1367 H   0  0  0  0  0  0  0  0  0  0  0  0
    3.5074   -2.5463   -0.8255 H   0  0  0  0  0  0  0  0  0  0  0  0
    1.6538    2.2498   -0.6341 H   0  0  0  0  0  0  0  0  0  0  0  0
   -1.6952    2.9658    0.7401 H   0  0  0  0  0  0  0  0  0  0  0  0
    0.0205    3.0675    0.5528 H   0  0  0  0  0  0  0  0  0  0  0  0
   -1.0102    2.9143   -0.8979 H   0  0  0  0  0  0  0  0  0  0  0  0
  1  2  1  0
  2  3  2  0
  3  4  1  0
  4  5  2  0
  5  6  1  0
  6  7  1  0
  6  8  2  0
  8  9  1  0
  8 10  1  0
 10 11  2  0
 11 12  1  0
 12 13  1  0
 12 14  2  0
 14 15  1  0
 14  2  1  0
 11  4  1  0
  1 16  1  0
  1 17  1  0
  1 18  1  0
  7 19  1  0
 10 20  1  0
 13 21  1  0
 13 22  1  0
 13 23  1  0
M  END
