
     RDKit          3D

 76 79  0  0  0  0  0  0  0  0999 V2000
    8.9606   -0.0020   -0.0471 C   0  0  0  0  0  0  0  0  0  0  0  0
    8.1592   -0.3694   -1.2865 C   0  0  0  0  0  0  0  0  0  0  0  0
    6.7439   -0.8640   -0.9735 C   0  0  0  0  0  0  0  0  0  0  0  0
    5.8586    0.2126   -0.3319 C   0  0  0  0  0  0  0  0  0  0  0  0
    4.3673   -0.1980   -0.2212 C   0  0  0  0  0  0  0  0  0  0  0  0
    4.1757   -1.2961    0.8495 C   0  0  0  0  0  0  0  0  0  0  0  0
    2.9490   -2.1699    0.6234 C   0  0  0  0  0  0  0  0  0  0  0  0
    3.5472    1.0790    0.0924 C   0  0  0  0  0  0  0  0  0  0  0  0
    2.1116    0.9243   -0.0253 N   0  0  0  0  0  0  0  0  0  0  0  0
    1.1760    1.1121    0.9911 C   0  0  0  0  0  0  0  0  0  0  0  0
   -0.0545    0.9776    0.5004 C   0  0  0  0  0  0  0  0  0  0  0  0
    0.0500    0.7073   -0.9057 C   0  0  0  0  0  0  0  0  0  0  0  0
   -1.1794    0.5723   -1.3992 C   0  0  0  0  0  0  0  0  0  0  0  0
   -2.1173    0.7280   -0.3757 N   0  0  0  0  0  0  0  0  0  0  0  0
   -1.4831    1.0288    0.8508 C   0  0  0  0  0  0  0  0  0  0  0  0
   -1.9591    1.2946    1.9347 O   0  0  0  0  0  0  0  0  0  0  0  0
   -3.5542    0.8212   -0.5472 C   0  0  0  0  0  0  0  0  0  0  0  0
   -4.4032   -0.1183    0.3480 C   0  0  0  0  0  0  0  0  0  0  0  0
   -4.2262   -1.6121   -0.0045 C   0  0  0  0  0  0  0  0  0  0  0  0
   -2.9368   -2.2331    0.5158 C   0  0  0  0  0  0  0  0  0  0  0  0
   -5.8873    0.3105    0.1958 C   0  0  0  0  0  0  0  0  0  0  0  0
   -6.8223   -0.3041    1.2452 C   0  0  0  0  0  0  0  0  0  0  0  0
   -8.2289    0.3020    1.2219 C   0  0  0  0  0  0  0  0  0  0  0  0
   -8.9923    0.0087   -0.0606 C   0  0  0  0  0  0  0  0  0  0  0  0
   -1.4595    0.3418   -2.7635 C   0  0  0  0  0  0  0  0  0  0  0  0
   -1.3301    1.2080   -3.8381 C   0  0  0  0  0  0  0  0  0  0  0  0
   -1.6946    0.6089   -5.0814 C   0  0  0  0  0  0  0  0  0  0  0  0
   -2.0737   -0.6957   -4.9065 C   0  0  0  0  0  0  0  0  0  0  0  0
   -1.9968   -1.2065   -3.2962 S   0  0  0  0  0  0  0  0  0  0  0  0
   -2.6271   -1.8340   -6.3377 Br  0  0  0  0  0  0  0  0  0  0  0  0
    1.4773    0.7045   -1.2665 C   0  0  0  0  0  0  0  0  0  0  0  0
    1.9542    0.5646   -2.3734 O   0  0  0  0  0  0  0  0  0  0  0  0
    1.4717    1.4008    2.3387 C   0  0  0  0  0  0  0  0  0  0  0  0
    1.7102    0.5281    3.3880 C   0  0  0  0  0  0  0  0  0  0  0  0
    1.9741    1.2023    4.6180 C   0  0  0  0  0  0  0  0  0  0  0  0
    1.9229    2.5624    4.4553 C   0  0  0  0  0  0  0  0  0  0  0  0
    1.5706    3.0372    2.8699 S   0  0  0  0  0  0  0  0  0  0  0  0
    2.2199    3.8058    5.8756 Br  0  0  0  0  0  0  0  0  0  0  0  0
    8.5332    0.8652    0.4649 H   0  0  0  0  0  0  0  0  0  0  0  0
    8.9984   -0.8381    0.6585 H   0  0  0  0  0  0  0  0  0  0  0  0
    9.9882    0.2525   -0.3265 H   0  0  0  0  0  0  0  0  0  0  0  0
    8.6930   -1.1619   -1.8251 H   0  0  0  0  0  0  0  0  0  0  0  0
    8.1123    0.4943   -1.9602 H   0  0  0  0  0  0  0  0  0  0  0  0
    6.8127   -1.7450   -0.3272 H   0  0  0  0  0  0  0  0  0  0  0  0
    6.2832   -1.1942   -1.9125 H   0  0  0  0  0  0  0  0  0  0  0  0
    5.9357    1.1200   -0.9446 H   0  0  0  0  0  0  0  0  0  0  0  0
    6.2378    0.4693    0.6645 H   0  0  0  0  0  0  0  0  0  0  0  0
    4.0575   -0.5923   -1.1969 H   0  0  0  0  0  0  0  0  0  0  0  0
    5.0383   -1.9698    0.8620 H   0  0  0  0  0  0  0  0  0  0  0  0
    4.1293   -0.8485    1.8491 H   0  0  0  0  0  0  0  0  0  0  0  0
    2.9375   -2.9893    1.3500 H   0  0  0  0  0  0  0  0  0  0  0  0
    2.9607   -2.6107   -0.3784 H   0  0  0  0  0  0  0  0  0  0  0  0
    2.0167   -1.6182    0.7460 H   0  0  0  0  0  0  0  0  0  0  0  0
    3.8194    1.8608   -0.6286 H   0  0  0  0  0  0  0  0  0  0  0  0
    3.8131    1.4611    1.0837 H   0  0  0  0  0  0  0  0  0  0  0  0
   -3.8083    1.8616   -0.3045 H   0  0  0  0  0  0  0  0  0  0  0  0
   -3.8249    0.6715   -1.5977 H   0  0  0  0  0  0  0  0  0  0  0  0
   -4.1220    0.0303    1.3972 H   0  0  0  0  0  0  0  0  0  0  0  0
   -5.0433   -2.1961    0.4302 H   0  0  0  0  0  0  0  0  0  0  0  0
   -4.2952   -1.7560   -1.0884 H   0  0  0  0  0  0  0  0  0  0  0  0
   -2.9645   -3.3189    0.3740 H   0  0  0  0  0  0  0  0  0  0  0  0
   -2.0563   -1.8657   -0.0125 H   0  0  0  0  0  0  0  0  0  0  0  0
   -2.8094   -2.0390    1.5852 H   0  0  0  0  0  0  0  0  0  0  0  0
   -5.9532    1.4026    0.2858 H   0  0  0  0  0  0  0  0  0  0  0  0
   -6.2347    0.0549   -0.8125 H   0  0  0  0  0  0  0  0  0  0  0  0
   -6.9040   -1.3869    1.1040 H   0  0  0  0  0  0  0  0  0  0  0  0
   -6.3966   -0.1439    2.2434 H   0  0  0  0  0  0  0  0  0  0  0  0
   -8.1722    1.3862    1.3738 H   0  0  0  0  0  0  0  0  0  0  0  0
   -8.7971   -0.1066    2.0666 H   0  0  0  0  0  0  0  0  0  0  0  0
   -8.5236    0.4861   -0.9257 H   0  0  0  0  0  0  0  0  0  0  0  0
  -10.0150    0.3918    0.0154 H   0  0  0  0  0  0  0  0  0  0  0  0
   -9.0478   -1.0684   -0.2463 H   0  0  0  0  0  0  0  0  0  0  0  0
   -0.9814    2.2304   -3.7389 H   0  0  0  0  0  0  0  0  0  0  0  0
   -1.6648    1.1134   -6.0395 H   0  0  0  0  0  0  0  0  0  0  0  0
    1.6929   -0.5507    3.2801 H   0  0  0  0  0  0  0  0  0  0  0  0
    2.1810    0.7078    5.5589 H   0  0  0  0  0  0  0  0  0  0  0  0
  1  2  1  0
  2  3  1  0
  3  4  1  0
  4  5  1  0
  5  6  1  0
  6  7  1  0
  5  8  1  0
  8  9  1  0
  9 10  1  0
 10 11  2  0
 11 12  1  0
 12 13  2  0
 13 14  1  0
 14 15  1  0
 15 16  2  0
 14 17  1  0
 17 18  1  0
 18 19  1  0
 19 20  1  0
 18 21  1  0
 21 22  1  0
 22 23  1  0
 23 24  1  0
 13 25  1  0
 25 26  2  0
 26 27  1  0
 27 28  2  0
 28 29  1  0
 28 30  1  0
 12 31  1  0
 31 32  2  0
 10 33  1  0
 33 34  2  0
 34 35  1  0
 35 36  2  0
 36 37  1  0
 36 38  1  0
 31  9  1  0
 15 11  1  0
 29 25  1  0
 37 33  1  0
  1 39  1  0
  1 40  1  0
  1 41  1  0
  2 42  1  0
  2 43  1  0
  3 44  1  0
  3 45  1  0
  4 46  1  0
  4 47  1  0
  5 48  1  0
  6 49  1  0
  6 50  1  0
  7 51  1  0
  7 52  1  0
  7 53  1  0
  8 54  1  0
  8 55  1  0
 17 56  1  0
 17 57  1  0
 18 58  1  0
 19 59  1  0
 19 60  1  0
 20 61  1  0
 20 62  1  0
 20 63  1  0
 21 64  1  0
 21 65  1  0
 22 66  1  0
 22 67  1  0
 23 68  1  0
 23 69  1  0
 24 70  1  0
 24 71  1  0
 24 72  1  0
 26 73  1  0
 27 74  1  0
 34 75  1  0
 35 76  1  0
M  END
