
     RDKit          3D

 12 12  0  0  0  0  0  0  0  0999 V2000
   -3.6349    1.4751    0.3919 N   0  0  0  0  0  0  0  0  0  0  0  0
   -2.5647    1.0386    0.2769 C   0  0  0  0  0  0  0  0  0  0  0  0
   -1.2515    0.4815    0.1398 C   0  0  0  0  0  0  0  0  0  0  0  0
   -0.2738    1.3700   -0.2011 N   0  0  0  0  0  0  0  0  0  0  0  0
    0.9821    0.8682   -0.3380 C   0  0  0  0  0  0  0  0  0  0  0  0
    2.3320    2.1170   -0.8128 Br  0  0  0  0  0  0  0  0  0  0  0  0
    1.2515   -0.4814   -0.1398 C   0  0  0  0  0  0  0  0  0  0  0  0
    2.5647   -1.0386   -0.2769 C   0  0  0  0  0  0  0  0  0  0  0  0
    3.6349   -1.4751   -0.3919 N   0  0  0  0  0  0  0  0  0  0  0  0
    0.2738   -1.3700    0.2012 N   0  0  0  0  0  0  0  0  0  0  0  0
   -0.9821   -0.8682    0.3380 C   0  0  0  0  0  0  0  0  0  0  0  0
   -2.3320   -2.1170    0.8127 Br  0  0  0  0  0  0  0  0  0  0  0  0
  1  2  3  0
  2  3  1  0
  3  4  2  0
  4  5  1  0
  5  6  1  0
  5  7  2  0
  7  8  1  0
  8  9  3  0
  7 10  1  0
 10 11  2  0
 11 12  1  0
 11  3  1  0
M  END
