
     RDKit          3D

 24 26  0  0  0  0  0  0  0  0999 V2000
   -4.4120   -1.6350    0.2433 O   0  0  0  0  0  0  0  0  0  0  0  0
   -3.1761   -1.7090    0.2453 N   0  0  0  0  0  4  0  0  0  0  0  0
   -2.5308   -2.7603    0.3799 O   0  0  0  0  0  1  0  0  0  0  0  0
   -2.4079   -0.4697    0.0770 C   0  0  0  0  0  0  0  0  0  0  0  0
   -3.0949    0.7462   -0.0790 C   0  0  0  0  0  0  0  0  0  0  0  0
   -2.3880    1.9344   -0.2402 C   0  0  0  0  0  0  0  0  0  0  0  0
   -3.3358    3.5595   -0.4486 Br  0  0  0  0  0  0  0  0  0  0  0  0
   -0.9896    1.9555   -0.2517 C   0  0  0  0  0  0  0  0  0  0  0  0
   -0.2787    0.7470   -0.0968 C   0  0  0  0  0  0  0  0  0  0  0  0
   -0.9983   -0.4376    0.0640 C   0  0  0  0  0  0  0  0  0  0  0  0
   -0.0721   -1.4517    0.1919 N   0  0  0  0  0  0  0  0  0  0  0  0
    1.2099   -0.9636    0.1195 C   0  0  0  0  0  0  0  0  0  0  0  0
    2.4349   -1.6362    0.2005 C   0  0  0  0  0  0  0  0  0  0  0  0
    3.6006   -0.8719    0.0924 C   0  0  0  0  0  0  0  0  0  0  0  0
    3.5317    0.5070   -0.0890 C   0  0  0  0  0  0  0  0  0  0  0  0
    5.1310    1.5091   -0.2312 Br  0  0  0  0  0  0  0  0  0  0  0  0
    2.3017    1.1677   -0.1684 C   0  0  0  0  0  0  0  0  0  0  0  0
    1.1135    0.4151   -0.0617 C   0  0  0  0  0  0  0  0  0  0  0  0
   -4.1837    0.7694   -0.0753 H   0  0  0  0  0  0  0  0  0  0  0  0
   -0.4491    2.8898   -0.3783 H   0  0  0  0  0  0  0  0  0  0  0  0
   -0.3150   -2.4272    0.3221 H   0  0  0  0  0  0  0  0  0  0  0  0
    2.4864   -2.7115    0.3420 H   0  0  0  0  0  0  0  0  0  0  0  0
    4.5657   -1.3703    0.1521 H   0  0  0  0  0  0  0  0  0  0  0  0
    2.2566    2.2432   -0.3100 H   0  0  0  0  0  0  0  0  0  0  0  0
  1  2  2  0
  2  3  1  0
  2  4  1  0
  4  5  2  0
  5  6  1  0
  6  7  1  0
  6  8  2  0
  8  9  1  0
  9 10  2  0
 10 11  1  0
 11 12  1  0
 12 13  2  0
 13 14  1  0
 14 15  2  0
 15 16  1  0
 15 17  1  0
 17 18  2  0
 10  4  1  0
 18 12  1  0
 18  9  1  0
  5 19  1  0
  8 20  1  0
 11 21  1  0
 13 22  1  0
 14 23  1  0
 17 24  1  0
M  CHG  2   2   1   3  -1
M  END
