
     RDKit          3D

 17 17  0  0  0  0  0  0  0  0999 V2000
   -2.0975   -0.1267   -0.4996 C   0  0  0  0  0  0  0  0  0  0  0  0
   -0.6699    0.2207   -0.1534 C   0  0  0  0  0  0  0  0  0  0  0  0
   -0.2405    1.5615   -0.0843 C   0  0  0  0  0  0  0  0  0  0  0  0
   -1.3808    3.0359   -0.4700 Br  0  0  0  0  0  0  0  0  0  0  0  0
    1.0752    1.8795    0.2672 C   0  0  0  0  0  0  0  0  0  0  0  0
    1.9939    0.8707    0.5397 C   0  0  0  0  0  0  0  0  0  0  0  0
    1.6095   -0.4675    0.4444 C   0  0  0  0  0  0  0  0  0  0  0  0
    2.9706   -1.7570    0.7701 Br  0  0  0  0  0  0  0  0  0  0  0  0
    0.2893   -0.8001    0.0866 C   0  0  0  0  0  0  0  0  0  0  0  0
   -0.0750   -2.2346   -0.0477 C   0  0  0  0  0  0  0  0  0  0  0  0
   -0.9021   -2.6360   -0.8572 O   0  0  0  0  0  0  0  0  0  0  0  0
   -2.1812   -0.3585   -1.5658 H   0  0  0  0  0  0  0  0  0  0  0  0
   -2.4503   -0.9769    0.0933 H   0  0  0  0  0  0  0  0  0  0  0  0
   -2.7982    0.6781   -0.2643 H   0  0  0  0  0  0  0  0  0  0  0  0
    1.3975    2.9175    0.3255 H   0  0  0  0  0  0  0  0  0  0  0  0
    3.0134    1.1418    0.8064 H   0  0  0  0  0  0  0  0  0  0  0  0
    0.4461   -2.9486    0.6091 H   0  0  0  0  0  0  0  0  0  0  0  0
  1  2  1  0
  2  3  2  0
  3  4  1  0
  3  5  1  0
  5  6  2  0
  6  7  1  0
  7  8  1  0
  7  9  2  0
  9 10  1  0
 10 11  2  0
  9  2  1  0
  1 12  1  0
  1 13  1  0
  1 14  1  0
  5 15  1  0
  6 16  1  0
 10 17  1  0
M  END
