
     RDKit          3D

 22 24  0  0  0  0  0  0  0  0999 V2000
    0.1823    3.0388   -0.2975 O   0  0  0  0  0  0  0  0  0  0  0  0
    0.1100    1.8346   -0.1796 C   0  0  0  0  0  0  0  0  0  0  0  0
    1.2383    0.8795   -0.1384 C   0  0  0  0  0  0  0  0  0  0  0  0
    2.5938    1.1325   -0.2223 C   0  0  0  0  0  0  0  0  0  0  0  0
    3.4495    0.0317   -0.1552 C   0  0  0  0  0  0  0  0  0  0  0  0
    2.9279   -1.2684   -0.0083 C   0  0  0  0  0  0  0  0  0  0  0  0
    4.1205   -2.7362    0.0789 Br  0  0  0  0  0  0  0  0  0  0  0  0
    1.5490   -1.5031    0.0749 C   0  0  0  0  0  0  0  0  0  0  0  0
    0.7001   -0.4115    0.0083 C   0  0  0  0  0  0  0  0  0  0  0  0
   -0.7440   -0.3195    0.0633 C   0  0  0  0  0  0  0  0  0  0  0  0
   -1.7169   -1.2950    0.1991 C   0  0  0  0  0  0  0  0  0  0  0  0
   -3.0571   -0.8871    0.2194 C   0  0  0  0  0  0  0  0  0  0  0  0
   -4.4161   -2.1923    0.4037 Br  0  0  0  0  0  0  0  0  0  0  0  0
   -3.4195    0.4693    0.1061 C   0  0  0  0  0  0  0  0  0  0  0  0
   -2.4387    1.4531   -0.0309 C   0  0  0  0  0  0  0  0  0  0  0  0
   -1.1237    1.0300   -0.0486 C   0  0  0  0  0  0  0  0  0  0  0  0
    2.9697    2.1440   -0.3352 H   0  0  0  0  0  0  0  0  0  0  0  0
    4.5244    0.1880   -0.2175 H   0  0  0  0  0  0  0  0  0  0  0  0
    1.1614   -2.5102    0.1879 H   0  0  0  0  0  0  0  0  0  0  0  0
   -1.4526   -2.3437    0.2873 H   0  0  0  0  0  0  0  0  0  0  0  0
   -4.4675    0.7609    0.1246 H   0  0  0  0  0  0  0  0  0  0  0  0
   -2.6908    2.5046   -0.1199 H   0  0  0  0  0  0  0  0  0  0  0  0
  1  2  2  0
  2  3  1  0
  3  4  2  0
  4  5  1  0
  5  6  2  0
  6  7  1  0
  6  8  1  0
  8  9  2  0
  9 10  1  0
 10 11  2  0
 11 12  1  0
 12 13  1  0
 12 14  2  0
 14 15  1  0
 15 16  2  0
 16  2  1  0
  9  3  1  0
 16 10  1  0
  4 17  1  0
  5 18  1  0
  8 19  1  0
 11 20  1  0
 14 21  1  0
 15 22  1  0
M  END
