
     RDKit          3D

 17 17  0  0  0  0  0  0  0  0999 V2000
   -2.1980   -1.2533    0.3580 C   0  0  0  0  0  0  0  0  0  0  0  0
   -1.0540   -0.2989    0.1560 C   0  0  0  0  0  0  0  0  0  0  0  0
   -1.3177    1.0767    0.1201 C   0  0  0  0  0  0  0  0  0  0  0  0
   -0.2664    1.9599   -0.0658 C   0  0  0  0  0  0  0  0  0  0  0  0
   -0.6287    3.8203   -0.1136 Br  0  0  0  0  0  0  0  0  0  0  0  0
    1.0144    1.5685   -0.2164 N   0  0  0  0  0  0  0  0  0  0  0  0
    1.2782    0.2359   -0.1827 C   0  0  0  0  0  0  0  0  0  0  0  0
    2.7249   -0.1289   -0.3568 C   0  0  0  0  0  0  0  0  0  0  0  0
    0.2754   -0.7269    0.0008 C   0  0  0  0  0  0  0  0  0  0  0  0
    0.7023   -2.5827    0.0398 Br  0  0  0  0  0  0  0  0  0  0  0  0
   -3.1507   -0.7215    0.4576 H   0  0  0  0  0  0  0  0  0  0  0  0
   -2.2916   -1.9272   -0.4996 H   0  0  0  0  0  0  0  0  0  0  0  0
   -2.0550   -1.8355    1.2738 H   0  0  0  0  0  0  0  0  0  0  0  0
   -2.3302    1.4513    0.2358 H   0  0  0  0  0  0  0  0  0  0  0  0
    2.8616   -0.7497   -1.2476 H   0  0  0  0  0  0  0  0  0  0  0  0
    3.0981   -0.6580    0.5254 H   0  0  0  0  0  0  0  0  0  0  0  0
    3.3376    0.7701   -0.4850 H   0  0  0  0  0  0  0  0  0  0  0  0
  1  2  1  0
  2  3  2  0
  3  4  1  0
  4  5  1  0
  4  6  2  0
  6  7  1  0
  7  8  1  0
  7  9  2  0
  9 10  1  0
  9  2  1  0
  1 11  1  0
  1 12  1  0
  1 13  1  0
  3 14  1  0
  8 15  1  0
  8 16  1  0
  8 17  1  0
M  END
