
     RDKit          3D

 22 24  0  0  0  0  0  0  0  0999 V2000
   -4.3255    2.3744    0.6861 Br  0  0  0  0  0  0  0  0  0  0  0  0
   -3.0106    1.1333    0.1261 C   0  0  0  0  0  0  0  0  0  0  0  0
   -3.3811    0.0594   -0.6795 C   0  0  0  0  0  0  0  0  0  0  0  0
   -2.4306   -0.8724   -1.1078 C   0  0  0  0  0  0  0  0  0  0  0  0
   -1.1058   -0.6817   -0.6967 C   0  0  0  0  0  0  0  0  0  0  0  0
    0.0195   -1.4268   -0.9614 N   0  0  0  0  0  0  0  0  0  0  0  0
    1.1271   -0.8807   -0.3561 C   0  0  0  0  0  0  0  0  0  0  0  0
    2.4603   -1.3084   -0.3617 C   0  0  0  0  0  0  0  0  0  0  0  0
    3.3877   -0.5440    0.3530 C   0  0  0  0  0  0  0  0  0  0  0  0
    2.9870    0.5986    1.0409 C   0  0  0  0  0  0  0  0  0  0  0  0
    4.2712    1.6080    1.9973 Br  0  0  0  0  0  0  0  0  0  0  0  0
    1.6525    1.0160    1.0393 C   0  0  0  0  0  0  0  0  0  0  0  0
    0.7005    0.2592    0.3245 C   0  0  0  0  0  0  0  0  0  0  0  0
   -0.7093    0.3849    0.1095 C   0  0  0  0  0  0  0  0  0  0  0  0
   -1.6842    1.3134    0.5303 C   0  0  0  0  0  0  0  0  0  0  0  0
   -4.4175   -0.0657   -0.9847 H   0  0  0  0  0  0  0  0  0  0  0  0
   -2.7174   -1.7101   -1.7356 H   0  0  0  0  0  0  0  0  0  0  0  0
    0.0309   -2.2639   -1.5254 H   0  0  0  0  0  0  0  0  0  0  0  0
    2.7707   -2.1993   -0.8985 H   0  0  0  0  0  0  0  0  0  0  0  0
    4.4300   -0.8543    0.3648 H   0  0  0  0  0  0  0  0  0  0  0  0
    1.3463    1.9076    1.5774 H   0  0  0  0  0  0  0  0  0  0  0  0
   -1.4017    2.1525    1.1583 H   0  0  0  0  0  0  0  0  0  0  0  0
  1  2  1  0
  2  3  2  0
  3  4  1  0
  4  5  2  0
  5  6  1  0
  6  7  1  0
  7  8  2  0
  8  9  1  0
  9 10  2  0
 10 11  1  0
 10 12  1  0
 12 13  2  0
 13 14  1  0
 14 15  2  0
 15  2  1  0
 14  5  1  0
 13  7  1  0
  3 16  1  0
  4 17  1  0
  6 18  1  0
  8 19  1  0
  9 20  1  0
 12 21  1  0
 15 22  1  0
M  END
