
     RDKit          3D

 24 26  0  0  0  0  0  0  0  0999 V2000
   -3.3451    3.6135   -0.5113 Br  0  0  0  0  0  0  0  0  0  0  0  0
   -2.6255    1.8744   -0.3253 C   0  0  0  0  0  0  0  0  0  0  0  0
   -3.4749    0.7796   -0.2960 C   0  0  0  0  0  0  0  0  0  0  0  0
   -2.9341   -0.4960   -0.1587 C   0  0  0  0  0  0  0  0  0  0  0  0
   -1.5460   -0.6874   -0.0499 C   0  0  0  0  0  0  0  0  0  0  0  0
   -1.0431   -1.9831    0.0865 C   0  0  0  0  0  0  0  0  0  0  0  0
    0.3257   -2.2099    0.1967 C   0  0  0  0  0  0  0  0  0  0  0  0
    1.2321   -1.1475    0.1738 C   0  0  0  0  0  0  0  0  0  0  0  0
    2.6073   -1.4139    0.2877 C   0  0  0  0  0  0  0  0  0  0  0  0
    3.5428   -0.3828    0.2692 C   0  0  0  0  0  0  0  0  0  0  0  0
    3.1045    0.9253    0.1362 C   0  0  0  0  0  0  0  0  0  0  0  0
    4.3630    2.3367    0.1095 Br  0  0  0  0  0  0  0  0  0  0  0  0
    1.7413    1.2088    0.0219 C   0  0  0  0  0  0  0  0  0  0  0  0
    0.7603    0.1847    0.0367 C   0  0  0  0  0  0  0  0  0  0  0  0
   -0.6570    0.4195   -0.0775 C   0  0  0  0  0  0  0  0  0  0  0  0
   -1.2431    1.7032   -0.2185 C   0  0  0  0  0  0  0  0  0  0  0  0
   -4.5510    0.9037   -0.3784 H   0  0  0  0  0  0  0  0  0  0  0  0
   -3.6113   -1.3480   -0.1370 H   0  0  0  0  0  0  0  0  0  0  0  0
   -1.7151   -2.8389    0.1088 H   0  0  0  0  0  0  0  0  0  0  0  0
    0.6759   -3.2350    0.3014 H   0  0  0  0  0  0  0  0  0  0  0  0
    2.9638   -2.4371    0.3926 H   0  0  0  0  0  0  0  0  0  0  0  0
    4.6009   -0.6123    0.3587 H   0  0  0  0  0  0  0  0  0  0  0  0
    1.4498    2.2498   -0.0801 H   0  0  0  0  0  0  0  0  0  0  0  0
   -0.6213    2.5928   -0.2469 H   0  0  0  0  0  0  0  0  0  0  0  0
  1  2  1  0
  2  3  2  0
  3  4  1  0
  4  5  2  0
  5  6  1  0
  6  7  2  0
  7  8  1  0
  8  9  2  0
  9 10  1  0
 10 11  2  0
 11 12  1  0
 11 13  1  0
 13 14  2  0
 14 15  1  0
 15 16  2  0
 16  2  1  0
 15  5  1  0
 14  8  1  0
  3 17  1  0
  4 18  1  0
  6 19  1  0
  7 20  1  0
  9 21  1  0
 10 22  1  0
 13 23  1  0
 16 24  1  0
M  END
