
     RDKit          3D

 76 79  0  0  0  0  0  0  0  0999 V2000
    7.9669   -0.3956   -0.4743 C   0  0  0  0  0  0  0  0  0  0  0  0
    6.8831   -1.3684   -0.0394 C   0  0  0  0  0  0  0  0  0  0  0  0
    6.4314   -1.1709    1.4064 C   0  0  0  0  0  0  0  0  0  0  0  0
    5.7753    0.1722    1.7618 C   0  0  0  0  0  0  0  0  0  0  0  0
    4.4156    0.5331    1.1090 C   0  0  0  0  0  0  0  0  0  0  0  0
    4.5352    1.2375   -0.2584 C   0  0  0  0  0  0  0  0  0  0  0  0
    5.2061    2.6044   -0.1875 C   0  0  0  0  0  0  0  0  0  0  0  0
    3.4712   -0.6904    1.0537 C   0  0  0  0  0  0  0  0  0  0  0  0
    2.0984   -0.3678    0.7057 N   0  0  0  0  0  0  0  0  0  0  0  0
    1.3989   -0.8372   -0.4053 C   0  0  0  0  0  0  0  0  0  0  0  0
    0.1399   -0.4070   -0.3571 C   0  0  0  0  0  0  0  0  0  0  0  0
   -0.0275    0.3740    0.8373 C   0  0  0  0  0  0  0  0  0  0  0  0
   -1.2903    0.7981    0.8848 C   0  0  0  0  0  0  0  0  0  0  0  0
   -1.9822    0.3338   -0.2358 N   0  0  0  0  0  0  0  0  0  0  0  0
   -1.1494   -0.4478   -1.0639 C   0  0  0  0  0  0  0  0  0  0  0  0
   -1.4003   -1.0307   -2.0979 O   0  0  0  0  0  0  0  0  0  0  0  0
   -3.3940    0.5271   -0.5165 C   0  0  0  0  0  0  0  0  0  0  0  0
   -4.3258   -0.3679    0.3281 C   0  0  0  0  0  0  0  0  0  0  0  0
   -4.1392   -1.8813    0.0770 C   0  0  0  0  0  0  0  0  0  0  0  0
   -4.5560   -2.4004   -1.2889 C   0  0  0  0  0  0  0  0  0  0  0  0
   -5.8060    0.0802    0.2580 C   0  0  0  0  0  0  0  0  0  0  0  0
   -6.3186    0.5293   -1.1159 C   0  0  0  0  0  0  0  0  0  0  0  0
   -7.8359    0.7385   -1.1502 C   0  0  0  0  0  0  0  0  0  0  0  0
   -8.3159    1.8582   -0.2395 C   0  0  0  0  0  0  0  0  0  0  0  0
   -1.8374    1.6033    1.9094 C   0  0  0  0  0  0  0  0  0  0  0  0
   -2.3424    2.8924    1.8333 C   0  0  0  0  0  0  0  0  0  0  0  0
   -2.8243    3.3771    3.0861 C   0  0  0  0  0  0  0  0  0  0  0  0
   -2.6677    2.4375    4.0706 C   0  0  0  0  0  0  0  0  0  0  0  0
   -1.9626    1.0018    3.5222 S   0  0  0  0  0  0  0  0  0  0  0  0
   -3.1959    2.7156    5.8861 Br  0  0  0  0  0  0  0  0  0  0  0  0
    1.2622    0.3936    1.5503 C   0  0  0  0  0  0  0  0  0  0  0  0
    1.5079    0.9292    2.6108 O   0  0  0  0  0  0  0  0  0  0  0  0
    1.9128   -1.6795   -1.4135 C   0  0  0  0  0  0  0  0  0  0  0  0
    1.8036   -3.0559   -1.5354 C   0  0  0  0  0  0  0  0  0  0  0  0
    2.4594   -3.5627   -2.6975 C   0  0  0  0  0  0  0  0  0  0  0  0
    3.0363   -2.5500   -3.4182 C   0  0  0  0  0  0  0  0  0  0  0  0
    2.7948   -1.0205   -2.7378 S   0  0  0  0  0  0  0  0  0  0  0  0
    4.0125   -2.8307   -5.0367 Br  0  0  0  0  0  0  0  0  0  0  0  0
    8.3017   -0.6353   -1.4888 H   0  0  0  0  0  0  0  0  0  0  0  0
    7.6070    0.6356   -0.4790 H   0  0  0  0  0  0  0  0  0  0  0  0
    8.8353   -0.4539    0.1896 H   0  0  0  0  0  0  0  0  0  0  0  0
    6.0326   -1.3163   -0.7245 H   0  0  0  0  0  0  0  0  0  0  0  0
    7.2825   -2.3859   -0.1342 H   0  0  0  0  0  0  0  0  0  0  0  0
    7.3077   -1.2936    2.0569 H   0  0  0  0  0  0  0  0  0  0  0  0
    5.7563   -1.9910    1.6773 H   0  0  0  0  0  0  0  0  0  0  0  0
    5.5976    0.1395    2.8467 H   0  0  0  0  0  0  0  0  0  0  0  0
    6.4986    0.9818    1.6250 H   0  0  0  0  0  0  0  0  0  0  0  0
    3.9566    1.2714    1.7811 H   0  0  0  0  0  0  0  0  0  0  0  0
    3.5328    1.4018   -0.6698 H   0  0  0  0  0  0  0  0  0  0  0  0
    5.0672    0.6133   -0.9796 H   0  0  0  0  0  0  0  0  0  0  0  0
    4.6983    3.2533    0.5333 H   0  0  0  0  0  0  0  0  0  0  0  0
    6.2589    2.5323    0.0948 H   0  0  0  0  0  0  0  0  0  0  0  0
    5.1624    3.0915   -1.1671 H   0  0  0  0  0  0  0  0  0  0  0  0
    3.4326   -1.1498    2.0497 H   0  0  0  0  0  0  0  0  0  0  0  0
    3.8575   -1.4455    0.3635 H   0  0  0  0  0  0  0  0  0  0  0  0
   -3.5563    0.3415   -1.5839 H   0  0  0  0  0  0  0  0  0  0  0  0
   -3.6270    1.5842   -0.3484 H   0  0  0  0  0  0  0  0  0  0  0  0
   -4.0406   -0.2331    1.3802 H   0  0  0  0  0  0  0  0  0  0  0  0
   -4.7066   -2.4341    0.8370 H   0  0  0  0  0  0  0  0  0  0  0  0
   -3.0891   -2.1476    0.2461 H   0  0  0  0  0  0  0  0  0  0  0  0
   -4.0852   -1.8433   -2.1024 H   0  0  0  0  0  0  0  0  0  0  0  0
   -5.6416   -2.3595   -1.4130 H   0  0  0  0  0  0  0  0  0  0  0  0
   -4.2609   -3.4500   -1.3914 H   0  0  0  0  0  0  0  0  0  0  0  0
   -6.4455   -0.7192    0.6527 H   0  0  0  0  0  0  0  0  0  0  0  0
   -5.9191    0.9259    0.9492 H   0  0  0  0  0  0  0  0  0  0  0  0
   -5.8265    1.4641   -1.4098 H   0  0  0  0  0  0  0  0  0  0  0  0
   -6.0648   -0.2106   -1.8802 H   0  0  0  0  0  0  0  0  0  0  0  0
   -8.1298    0.9763   -2.1796 H   0  0  0  0  0  0  0  0  0  0  0  0
   -8.3466   -0.1940   -0.8829 H   0  0  0  0  0  0  0  0  0  0  0  0
   -8.1583    1.6122    0.8146 H   0  0  0  0  0  0  0  0  0  0  0  0
   -7.7936    2.7948   -0.4594 H   0  0  0  0  0  0  0  0  0  0  0  0
   -9.3882    2.0264   -0.3841 H   0  0  0  0  0  0  0  0  0  0  0  0
   -2.3596    3.4688    0.9153 H   0  0  0  0  0  0  0  0  0  0  0  0
   -3.2537    4.3590    3.2427 H   0  0  0  0  0  0  0  0  0  0  0  0
    1.2732   -3.6751   -0.8207 H   0  0  0  0  0  0  0  0  0  0  0  0
    2.4942   -4.6084   -2.9777 H   0  0  0  0  0  0  0  0  0  0  0  0
  1  2  1  0
  2  3  1  0
  3  4  1  0
  4  5  1  0
  5  6  1  0
  6  7  1  0
  5  8  1  0
  8  9  1  0
  9 10  1  0
 10 11  2  0
 11 12  1  0
 12 13  2  0
 13 14  1  0
 14 15  1  0
 15 16  2  0
 14 17  1  0
 17 18  1  0
 18 19  1  0
 19 20  1  0
 18 21  1  0
 21 22  1  0
 22 23  1  0
 23 24  1  0
 13 25  1  0
 25 26  2  0
 26 27  1  0
 27 28  2  0
 28 29  1  0
 28 30  1  0
 12 31  1  0
 31 32  2  0
 10 33  1  0
 33 34  2  0
 34 35  1  0
 35 36  2  0
 36 37  1  0
 36 38  1  0
 31  9  1  0
 15 11  1  0
 29 25  1  0
 37 33  1  0
  1 39  1  0
  1 40  1  0
  1 41  1  0
  2 42  1  0
  2 43  1  0
  3 44  1  0
  3 45  1  0
  4 46  1  0
  4 47  1  0
  5 48  1  0
  6 49  1  0
  6 50  1  0
  7 51  1  0
  7 52  1  0
  7 53  1  0
  8 54  1  0
  8 55  1  0
 17 56  1  0
 17 57  1  0
 18 58  1  0
 19 59  1  0
 19 60  1  0
 20 61  1  0
 20 62  1  0
 20 63  1  0
 21 64  1  0
 21 65  1  0
 22 66  1  0
 22 67  1  0
 23 68  1  0
 23 69  1  0
 24 70  1  0
 24 71  1  0
 24 72  1  0
 26 73  1  0
 27 74  1  0
 34 75  1  0
 35 76  1  0
M  END
