
     RDKit          3D

 12 12  0  0  0  0  0  0  0  0999 V2000
    3.4022   -0.5166    1.9235 N   0  0  0  0  0  0  0  0  0  0  0  0
    2.4008   -0.3648    1.3549 C   0  0  0  0  0  0  0  0  0  0  0  0
    1.1749   -0.1812    0.6358 C   0  0  0  0  0  0  0  0  0  0  0  0
    0.0875    0.1174    1.4039 N   0  0  0  0  0  0  0  0  0  0  0  0
   -1.0891    0.2969    0.7472 C   0  0  0  0  0  0  0  0  0  0  0  0
   -2.5934    0.7120    1.8296 Br  0  0  0  0  0  0  0  0  0  0  0  0
   -1.1749    0.1811   -0.6358 C   0  0  0  0  0  0  0  0  0  0  0  0
   -2.4009    0.3648   -1.3549 C   0  0  0  0  0  0  0  0  0  0  0  0
   -3.4022    0.5167   -1.9235 N   0  0  0  0  0  0  0  0  0  0  0  0
   -0.0875   -0.1175   -1.4039 N   0  0  0  0  0  0  0  0  0  0  0  0
    1.0890   -0.2969   -0.7472 C   0  0  0  0  0  0  0  0  0  0  0  0
    2.5935   -0.7117   -1.8296 Br  0  0  0  0  0  0  0  0  0  0  0  0
  1  2  3  0
  2  3  1  0
  3  4  2  0
  4  5  1  0
  5  6  1  0
  5  7  2  0
  7  8  1  0
  8  9  3  0
  7 10  1  0
 10 11  2  0
 11 12  1  0
 11  3  1  0
M  END
