
     RDKit          3D

 23 24  0  0  0  0  0  0  0  0999 V2000
   -3.3809    1.0576    0.2766 C   0  0  0  0  0  0  0  0  0  0  0  0
   -1.9875    0.5149    0.1271 C   0  0  0  0  0  0  0  0  0  0  0  0
   -1.0122    1.3200    0.6167 N   0  0  0  0  0  0  0  0  0  0  0  0
    0.2608    0.9619    0.5212 C   0  0  0  0  0  0  0  0  0  0  0  0
    1.1503    1.8271    1.0055 N   0  0  0  0  0  0  0  0  0  0  0  0
    2.4523    1.5193    0.9164 C   0  0  0  0  0  0  0  0  0  0  0  0
    3.2548    2.4787    1.4425 O   0  0  0  0  0  0  0  0  0  0  0  0
    2.9516    0.3664    0.3544 C   0  0  0  0  0  0  0  0  0  0  0  0
    4.7971   -0.0067    0.2482 Br  0  0  0  0  0  0  0  0  0  0  0  0
    2.0271   -0.5382   -0.1474 C   0  0  0  0  0  0  0  0  0  0  0  0
    0.6401   -0.2649   -0.0689 C   0  0  0  0  0  0  0  0  0  0  0  0
   -0.3787   -1.1414   -0.5514 C   0  0  0  0  0  0  0  0  0  0  0  0
   -0.0001   -2.4624   -1.1784 C   0  0  0  0  0  0  0  0  0  0  0  0
   -1.7160   -0.7161   -0.4717 C   0  0  0  0  0  0  0  0  0  0  0  0
   -3.1443   -1.7630   -1.1781 Br  0  0  0  0  0  0  0  0  0  0  0  0
   -3.9963    0.3818    0.8784 H   0  0  0  0  0  0  0  0  0  0  0  0
   -3.8435    1.2090   -0.7035 H   0  0  0  0  0  0  0  0  0  0  0  0
   -3.3658    2.0276    0.7857 H   0  0  0  0  0  0  0  0  0  0  0  0
    2.5863    3.1250    1.7358 H   0  0  0  0  0  0  0  0  0  0  0  0
    2.3920   -1.4525   -0.6061 H   0  0  0  0  0  0  0  0  0  0  0  0
    0.3194   -2.3062   -2.2135 H   0  0  0  0  0  0  0  0  0  0  0  0
    0.8068   -2.9465   -0.6189 H   0  0  0  0  0  0  0  0  0  0  0  0
   -0.8133   -3.1916   -1.1705 H   0  0  0  0  0  0  0  0  0  0  0  0
  1  2  1  0
  2  3  2  0
  3  4  1  0
  4  5  2  0
  5  6  1  0
  6  7  1  0
  6  8  2  0
  8  9  1  0
  8 10  1  0
 10 11  2  0
 11 12  1  0
 12 13  1  0
 12 14  2  0
 14 15  1  0
 14  2  1  0
 11  4  1  0
  1 16  1  0
  1 17  1  0
  1 18  1  0
  7 19  1  0
 10 20  1  0
 13 21  1  0
 13 22  1  0
 13 23  1  0
M  END
