
     RDKit          3D

 22 24  0  0  0  0  0  0  0  0999 V2000
   -0.5766   -2.9948   -0.4338 O   0  0  0  0  0  0  0  0  0  0  0  0
   -0.3481   -1.8080   -0.3408 C   0  0  0  0  0  0  0  0  0  0  0  0
   -1.3427   -0.7139   -0.3152 C   0  0  0  0  0  0  0  0  0  0  0  0
   -2.7201   -0.7906   -0.3892 C   0  0  0  0  0  0  0  0  0  0  0  0
   -3.4254    0.4132   -0.3416 C   0  0  0  0  0  0  0  0  0  0  0  0
   -2.7386    1.6372   -0.2233 C   0  0  0  0  0  0  0  0  0  0  0  0
   -3.7303    3.2488   -0.1620 Br  0  0  0  0  0  0  0  0  0  0  0  0
   -1.3405    1.6926   -0.1498 C   0  0  0  0  0  0  0  0  0  0  0  0
   -0.6408    0.4989   -0.1969 C   0  0  0  0  0  0  0  0  0  0  0  0
    0.7795    0.2214   -0.1453 C   0  0  0  0  0  0  0  0  0  0  0  0
    1.8715    1.0650   -0.0329 C   0  0  0  0  0  0  0  0  0  0  0  0
    3.1477    0.4871   -0.0090 C   0  0  0  0  0  0  0  0  0  0  0  0
    4.6655    1.6083    0.1437 Br  0  0  0  0  0  0  0  0  0  0  0  0
    3.3303   -0.9068   -0.0956 C   0  0  0  0  0  0  0  0  0  0  0  0
    2.2294   -1.7577   -0.2090 C   0  0  0  0  0  0  0  0  0  0  0  0
    0.9804   -1.1679   -0.2307 C   0  0  0  0  0  0  0  0  0  0  0  0
   -3.2246   -1.7467   -0.4800 H   0  0  0  0  0  0  0  0  0  0  0  0
   -4.5119    0.3964   -0.3969 H   0  0  0  0  0  0  0  0  0  0  0  0
   -0.8249    2.6430   -0.0588 H   0  0  0  0  0  0  0  0  0  0  0  0
    1.7459    2.1406    0.0348 H   0  0  0  0  0  0  0  0  0  0  0  0
    4.3318   -1.3316   -0.0749 H   0  0  0  0  0  0  0  0  0  0  0  0
    2.3426   -2.8345   -0.2773 H   0  0  0  0  0  0  0  0  0  0  0  0
  1  2  2  0
  2  3  1  0
  3  4  2  0
  4  5  1  0
  5  6  2  0
  6  7  1  0
  6  8  1  0
  8  9  2  0
  9 10  1  0
 10 11  2  0
 11 12  1  0
 12 13  1  0
 12 14  2  0
 14 15  1  0
 15 16  2  0
 16  2  1  0
  9  3  1  0
 16 10  1  0
  4 17  1  0
  5 18  1  0
  8 19  1  0
 11 20  1  0
 14 21  1  0
 15 22  1  0
M  END
