
     RDKit          3D

 14 14  0  0  0  0  0  0  0  0999 V2000
    2.0050   -2.1092   -0.8686 O   0  0  0  0  0  0  0  0  0  0  0  0
    1.7679   -0.9344   -0.6603 C   0  0  0  0  0  0  0  0  0  0  0  0
    2.6971    0.0245   -0.8472 O   0  0  0  0  0  0  0  0  0  0  0  0
    0.4716   -0.3520   -0.2419 C   0  0  0  0  0  0  0  0  0  0  0  0
   -0.5384   -0.5180   -1.1417 N   0  0  0  0  0  0  0  0  0  0  0  0
   -1.7395   -0.0066   -0.8084 C   0  0  0  0  0  0  0  0  0  0  0  0
   -3.1596   -0.2145   -2.0462 Br  0  0  0  0  0  0  0  0  0  0  0  0
   -1.9840    0.6591    0.3847 C   0  0  0  0  0  0  0  0  0  0  0  0
   -0.9371    0.8051    1.2947 C   0  0  0  0  0  0  0  0  0  0  0  0
    0.3205    0.2887    0.9848 C   0  0  0  0  0  0  0  0  0  0  0  0
    1.6995    0.4548    2.2704 Br  0  0  0  0  0  0  0  0  0  0  0  0
    3.4803   -0.4667   -1.1741 H   0  0  0  0  0  0  0  0  0  0  0  0
   -2.9681    1.0554    0.6146 H   0  0  0  0  0  0  0  0  0  0  0  0
   -1.1152    1.3139    2.2391 H   0  0  0  0  0  0  0  0  0  0  0  0
  1  2  2  0
  2  3  1  0
  2  4  1  0
  4  5  2  0
  5  6  1  0
  6  7  1  0
  6  8  2  0
  8  9  1  0
  9 10  2  0
 10 11  1  0
 10  4  1  0
  3 12  1  0
  8 13  1  0
  9 14  1  0
M  END
