
     RDKit          3D

 24 26  0  0  0  0  0  0  0  0999 V2000
    1.6287    3.1476   -0.0398 O   0  0  0  0  0  0  0  0  0  0  0  0
    0.9314    2.1422   -0.0305 C   0  0  0  0  0  0  0  0  0  0  0  0
   -0.5763    2.2631   -0.0623 C   0  0  0  0  0  0  0  0  0  0  0  0
   -1.1035    3.3666   -0.0974 O   0  0  0  0  0  0  0  0  0  0  0  0
   -1.3868    1.0299   -0.0500 C   0  0  0  0  0  0  0  0  0  0  0  0
   -2.7869    1.1666   -0.0801 C   0  0  0  0  0  0  0  0  0  0  0  0
   -3.6029    0.0410   -0.0704 C   0  0  0  0  0  0  0  0  0  0  0  0
   -3.0155   -1.2152   -0.0307 C   0  0  0  0  0  0  0  0  0  0  0  0
   -4.1094   -2.7581   -0.0169 Br  0  0  0  0  0  0  0  0  0  0  0  0
   -1.6218   -1.3536   -0.0007 C   0  0  0  0  0  0  0  0  0  0  0  0
   -0.7640   -0.2324   -0.0095 C   0  0  0  0  0  0  0  0  0  0  0  0
    0.7169   -0.3512    0.0218 C   0  0  0  0  0  0  0  0  0  0  0  0
    1.3842   -1.5946    0.0628 C   0  0  0  0  0  0  0  0  0  0  0  0
    2.7821   -1.6801    0.0917 C   0  0  0  0  0  0  0  0  0  0  0  0
    3.6147   -3.3773    0.1461 Br  0  0  0  0  0  0  0  0  0  0  0  0
    3.5631   -0.5336    0.0808 C   0  0  0  0  0  0  0  0  0  0  0  0
    2.9380    0.7076    0.0407 C   0  0  0  0  0  0  0  0  0  0  0  0
    1.5340    0.7958    0.0116 C   0  0  0  0  0  0  0  0  0  0  0  0
   -3.2437    2.1556   -0.1113 H   0  0  0  0  0  0  0  0  0  0  0  0
   -4.6836    0.1561   -0.0939 H   0  0  0  0  0  0  0  0  0  0  0  0
   -1.2268   -2.3650    0.0298 H   0  0  0  0  0  0  0  0  0  0  0  0
    0.8322   -2.5301    0.0733 H   0  0  0  0  0  0  0  0  0  0  0  0
    4.6484   -0.5921    0.1031 H   0  0  0  0  0  0  0  0  0  0  0  0
    3.5474    1.6111    0.0320 H   0  0  0  0  0  0  0  0  0  0  0  0
  1  2  2  0
  2  3  1  0
  3  4  2  0
  3  5  1  0
  5  6  2  0
  6  7  1  0
  7  8  2  0
  8  9  1  0
  8 10  1  0
 10 11  2  0
 11 12  1  0
 12 13  2  0
 13 14  1  0
 14 15  1  0
 14 16  2  0
 16 17  1  0
 17 18  2  0
 18  2  1  0
 11  5  1  0
 18 12  1  0
  6 19  1  0
  7 20  1  0
 10 21  1  0
 13 22  1  0
 16 23  1  0
 17 24  1  0
M  END
