
     RDKit          3D

 10 10  0  0  0  0  0  0  0  0999 V2000
   -3.2426   -0.4591   -0.1987 Br  0  0  0  0  0  0  0  0  0  0  0  0
   -1.3526   -0.3942   -0.2041 C   0  0  0  0  0  0  0  0  0  0  0  0
   -0.7028    0.6612    0.4118 C   0  0  0  0  0  0  0  0  0  0  0  0
    0.6902    0.6851    0.3935 C   0  0  0  0  0  0  0  0  0  0  0  0
    1.3595   -0.3475   -0.2396 C   0  0  0  0  0  0  0  0  0  0  0  0
    3.2502   -0.3474   -0.2837 Br  0  0  0  0  0  0  0  0  0  0  0  0
    0.6996   -1.3637   -0.8317 N   0  0  0  0  0  0  0  0  0  0  0  0
   -0.6738   -1.3873   -0.8138 N   0  0  0  0  0  0  0  0  0  0  0  0
   -1.2582    1.4550    0.8994 H   0  0  0  0  0  0  0  0  0  0  0  0
    1.2306    1.4978    0.8669 H   0  0  0  0  0  0  0  0  0  0  0  0
  1  2  1  0
  2  3  2  0
  3  4  1  0
  4  5  2  0
  5  6  1  0
  5  7  1  0
  7  8  2  0
  8  2  1  0
  3  9  1  0
  4 10  1  0
M  END
