
     RDKit          3D

 20 21  0  0  0  0  0  0  0  0999 V2000
   -3.3990    1.4939    0.8210 O   0  0  0  0  0  0  0  0  0  0  0  0
   -2.3305    0.7466    0.4093 C   0  0  0  0  0  0  0  0  0  0  0  0
   -1.0327    1.1954    0.6595 C   0  0  0  0  0  0  0  0  0  0  0  0
    0.0757    0.4382    0.2425 C   0  0  0  0  0  0  0  0  0  0  0  0
    1.3900    0.8734    0.4853 C   0  0  0  0  0  0  0  0  0  0  0  0
    2.4780    0.1075    0.0634 C   0  0  0  0  0  0  0  0  0  0  0  0
    3.7509    0.5437    0.3066 O   0  0  0  0  0  0  0  0  0  0  0  0
    2.2701   -1.0990   -0.6043 C   0  0  0  0  0  0  0  0  0  0  0  0
    3.7202   -2.1695   -1.1941 Br  0  0  0  0  0  0  0  0  0  0  0  0
    0.9701   -1.5443   -0.8526 C   0  0  0  0  0  0  0  0  0  0  0  0
   -0.1359   -0.7867   -0.4354 C   0  0  0  0  0  0  0  0  0  0  0  0
   -1.4480   -1.2229   -0.6787 C   0  0  0  0  0  0  0  0  0  0  0  0
   -2.5393   -0.4598   -0.2583 C   0  0  0  0  0  0  0  0  0  0  0  0
   -4.2859   -1.1055   -0.6182 Br  0  0  0  0  0  0  0  0  0  0  0  0
   -3.0847    2.2972    1.2657 H   0  0  0  0  0  0  0  0  0  0  0  0
   -0.8748    2.1361    1.1801 H   0  0  0  0  0  0  0  0  0  0  0  0
    1.5568    1.8129    1.0052 H   0  0  0  0  0  0  0  0  0  0  0  0
    3.7220    1.3925    0.7761 H   0  0  0  0  0  0  0  0  0  0  0  0
    0.8174   -2.4869   -1.3743 H   0  0  0  0  0  0  0  0  0  0  0  0
   -1.6205   -2.1629   -1.1989 H   0  0  0  0  0  0  0  0  0  0  0  0
  1  2  1  0
  2  3  2  0
  3  4  1  0
  4  5  2  0
  5  6  1  0
  6  7  1  0
  6  8  2  0
  8  9  1  0
  8 10  1  0
 10 11  2  0
 11 12  1  0
 12 13  2  0
 13 14  1  0
 13  2  1  0
 11  4  1  0
  1 15  1  0
  3 16  1  0
  5 17  1  0
  7 18  1  0
 10 19  1  0
 12 20  1  0
M  END
