
     RDKit          3D

 14 15  0  0  0  0  0  0  0  0999 V2000
   -3.8275   -0.9241    0.3553 Br  0  0  0  0  0  0  0  0  0  0  0  0
   -1.9512   -0.6795    0.1899 C   0  0  0  0  0  0  0  0  0  0  0  0
   -1.4664    0.6194    0.0950 C   0  0  0  0  0  0  0  0  0  0  0  0
   -0.0812    0.7144   -0.0235 C   0  0  0  0  0  0  0  0  0  0  0  0
    0.7590    1.7910   -0.1384 N   0  0  0  0  0  0  0  0  0  0  0  0
    2.0589    1.4622   -0.2319 N   0  0  0  0  0  0  0  0  0  0  0  0
    2.0432    0.1295   -0.1743 C   0  0  0  0  0  0  0  0  0  0  0  0
    3.6084   -0.9110   -0.2596 Br  0  0  0  0  0  0  0  0  0  0  0  0
    0.7457   -0.4055   -0.0445 C   0  0  0  0  0  0  0  0  0  0  0  0
    0.1639   -1.6705    0.0570 C   0  0  0  0  0  0  0  0  0  0  0  0
   -1.1829   -1.7934    0.1735 N   0  0  0  0  0  0  0  0  0  0  0  0
   -2.1128    1.4872    0.1117 H   0  0  0  0  0  0  0  0  0  0  0  0
    0.5106    2.7745   -0.1594 H   0  0  0  0  0  0  0  0  0  0  0  0
    0.7323   -2.5941    0.0491 H   0  0  0  0  0  0  0  0  0  0  0  0
  1  2  1  0
  2  3  2  0
  3  4  1  0
  4  5  1  0
  5  6  1  0
  6  7  2  0
  7  8  1  0
  7  9  1  0
  9 10  1  0
 10 11  2  0
 11  2  1  0
  9  4  2  0
  3 12  1  0
  5 13  1  0
 10 14  1  0
M  END
