
     RDKit          3D

 12 12  0  0  0  0  0  0  0  0999 V2000
    3.0569   -0.6169    0.3182 O   0  0  0  0  0  0  0  0  0  0  0  0
    1.9491   -1.0847    0.1010 C   0  0  0  0  0  0  0  0  0  0  0  0
    0.6860   -0.3126    0.0458 C   0  0  0  0  0  0  0  0  0  0  0  0
   -0.3982   -1.1055   -0.2161 N   0  0  0  0  0  0  0  0  0  0  0  0
   -1.5910   -0.4750   -0.2829 C   0  0  0  0  0  0  0  0  0  0  0  0
   -3.1337   -1.5069   -0.6414 Br  0  0  0  0  0  0  0  0  0  0  0  0
   -1.7055    0.8922   -0.0968 C   0  0  0  0  0  0  0  0  0  0  0  0
   -0.6360    1.6838    0.1630 N   0  0  0  0  0  0  0  0  0  0  0  0
    0.5763    1.0643    0.2339 C   0  0  0  0  0  0  0  0  0  0  0  0
    2.0317    2.2257    0.5998 Br  0  0  0  0  0  0  0  0  0  0  0  0
    1.8259   -2.1674   -0.0750 H   0  0  0  0  0  0  0  0  0  0  0  0
   -2.6613    1.4030   -0.1495 H   0  0  0  0  0  0  0  0  0  0  0  0
  1  2  2  0
  2  3  1  0
  3  4  2  0
  4  5  1  0
  5  6  1  0
  5  7  2  0
  7  8  1  0
  8  9  2  0
  9 10  1  0
  9  3  1  0
  2 11  1  0
  7 12  1  0
M  END
