
     RDKit          3D

 13 13  0  0  0  0  0  0  0  0999 V2000
   -1.8677   -1.1874   -1.8121 O   0  0  0  0  0  0  0  0  0  0  0  0
   -1.6586   -0.6743   -0.7297 C   0  0  0  0  0  0  0  0  0  0  0  0
   -2.6201   -0.5601    0.2072 O   0  0  0  0  0  0  0  0  0  0  0  0
   -0.3682   -0.1612   -0.2354 C   0  0  0  0  0  0  0  0  0  0  0  0
    0.6071   -1.1032   -0.0627 N   0  0  0  0  0  0  0  0  0  0  0  0
    1.7919   -0.6337    0.3818 C   0  0  0  0  0  0  0  0  0  0  0  0
    3.2001   -1.8645    0.6605 Br  0  0  0  0  0  0  0  0  0  0  0  0
    1.9979    0.7151    0.6379 C   0  0  0  0  0  0  0  0  0  0  0  0
    1.0337    1.6542    0.4569 N   0  0  0  0  0  0  0  0  0  0  0  0
   -0.1658    1.1939    0.0090 C   0  0  0  0  0  0  0  0  0  0  0  0
   -1.4940    2.5136   -0.3111 Br  0  0  0  0  0  0  0  0  0  0  0  0
   -3.4070   -0.9837   -0.1986 H   0  0  0  0  0  0  0  0  0  0  0  0
    2.9507    1.0913    0.9963 H   0  0  0  0  0  0  0  0  0  0  0  0
  1  2  2  0
  2  3  1  0
  2  4  1  0
  4  5  2  0
  5  6  1  0
  6  7  1  0
  6  8  2  0
  8  9  1  0
  9 10  2  0
 10 11  1  0
 10  4  1  0
  3 12  1  0
  8 13  1  0
M  END
