
     RDKit          3D

 10 10  0  0  0  0  0  0  0  0999 V2000
   -3.2538   -0.4210   -0.0105 Br  0  0  0  0  0  0  0  0  0  0  0  0
   -1.3627   -0.4114   -0.0153 C   0  0  0  0  0  0  0  0  0  0  0  0
   -0.6848    0.7938    0.0386 C   0  0  0  0  0  0  0  0  0  0  0  0
    0.7084    0.7731    0.0338 C   0  0  0  0  0  0  0  0  0  0  0  0
    1.3497   -0.4518   -0.0246 C   0  0  0  0  0  0  0  0  0  0  0  0
    3.2397   -0.5177   -0.0328 Br  0  0  0  0  0  0  0  0  0  0  0  0
    0.6627   -1.6112   -0.0763 N   0  0  0  0  0  0  0  0  0  0  0  0
   -0.7109   -1.5907   -0.0716 N   0  0  0  0  0  0  0  0  0  0  0  0
   -1.2187    1.7370    0.0836 H   0  0  0  0  0  0  0  0  0  0  0  0
    1.2704    1.6999    0.0751 H   0  0  0  0  0  0  0  0  0  0  0  0
  1  2  1  0
  2  3  2  0
  3  4  1  0
  4  5  2  0
  5  6  1  0
  5  7  1  0
  7  8  2  0
  8  2  1  0
  3  9  1  0
  4 10  1  0
M  END
