
     RDKit          3D

 15 16  0  0  0  0  0  0  0  0999 V2000
    4.1484    0.3606    0.0238 Br  0  0  0  0  0  0  0  0  0  0  0  0
    2.2932   -0.0488    0.0366 C   0  0  0  0  0  0  0  0  0  0  0  0
    1.3908    1.0012   -0.0751 C   0  0  0  0  0  0  0  0  0  0  0  0
    0.0463    0.6305   -0.0589 C   0  0  0  0  0  0  0  0  0  0  0  0
   -1.0951    1.3987   -0.1473 N   0  0  0  0  0  0  0  0  0  0  0  0
   -2.2065    0.5989   -0.0873 C   0  0  0  0  0  0  0  0  0  0  0  0
   -1.7692   -0.6951    0.0409 C   0  0  0  0  0  0  0  0  0  0  0  0
   -2.8561   -2.2186    0.1696 Br  0  0  0  0  0  0  0  0  0  0  0  0
   -0.3533   -0.7036    0.0615 C   0  0  0  0  0  0  0  0  0  0  0  0
    0.6371   -1.6876    0.1682 C   0  0  0  0  0  0  0  0  0  0  0  0
    1.9505   -1.3502    0.1546 N   0  0  0  0  0  0  0  0  0  0  0  0
    1.7074    2.0318   -0.1680 H   0  0  0  0  0  0  0  0  0  0  0  0
   -1.1069    2.4058   -0.2425 H   0  0  0  0  0  0  0  0  0  0  0  0
   -3.2010    1.0211   -0.1410 H   0  0  0  0  0  0  0  0  0  0  0  0
    0.4145   -2.7445    0.2648 H   0  0  0  0  0  0  0  0  0  0  0  0
  1  2  1  0
  2  3  2  0
  3  4  1  0
  4  5  1  0
  5  6  1  0
  6  7  2  0
  7  8  1  0
  7  9  1  0
  9 10  1  0
 10 11  2  0
 11  2  1  0
  9  4  2  0
  3 12  1  0
  5 13  1  0
  6 14  1  0
 10 15  1  0
M  END
