
     RDKit          3D

 28 30  0  0  0  0  0  0  0  0999 V2000
   -1.4327   -0.6144   -2.7874 C   0  0  0  0  0  0  0  0  0  0  0  0
   -1.5924   -1.1327   -1.3689 C   0  0  0  0  0  0  0  0  0  0  0  0
   -0.6614   -0.5028   -0.4440 N   0  0  0  0  0  0  0  0  0  0  0  0
    0.6027   -0.9825   -0.1549 C   0  0  0  0  0  0  0  0  0  0  0  0
    1.3023   -2.1006   -0.6415 C   0  0  0  0  0  0  0  0  0  0  0  0
    2.5907   -2.3382   -0.1528 C   0  0  0  0  0  0  0  0  0  0  0  0
    3.1586   -1.4865    0.7880 C   0  0  0  0  0  0  0  0  0  0  0  0
    4.9043   -1.8359    1.4296 Br  0  0  0  0  0  0  0  0  0  0  0  0
    2.4627   -0.3743    1.2673 C   0  0  0  0  0  0  0  0  0  0  0  0
    1.1609   -0.1154    0.7865 C   0  0  0  0  0  0  0  0  0  0  0  0
    0.2016    0.9106    1.0534 C   0  0  0  0  0  0  0  0  0  0  0  0
    0.2026    2.0432    1.8962 C   0  0  0  0  0  0  0  0  0  0  0  0
   -0.9192    2.8750    1.9227 C   0  0  0  0  0  0  0  0  0  0  0  0
   -0.9209    4.3946    3.0505 Br  0  0  0  0  0  0  0  0  0  0  0  0
   -2.0316    2.6057    1.1334 C   0  0  0  0  0  0  0  0  0  0  0  0
   -2.0537    1.4889    0.2923 C   0  0  0  0  0  0  0  0  0  0  0  0
   -0.9249    0.6514    0.2701 C   0  0  0  0  0  0  0  0  0  0  0  0
   -0.4234   -0.8043   -3.1674 H   0  0  0  0  0  0  0  0  0  0  0  0
   -1.6100    0.4650   -2.8372 H   0  0  0  0  0  0  0  0  0  0  0  0
   -2.1464   -1.1082   -3.4541 H   0  0  0  0  0  0  0  0  0  0  0  0
   -2.6094   -0.9551   -1.0040 H   0  0  0  0  0  0  0  0  0  0  0  0
   -1.4314   -2.2151   -1.3318 H   0  0  0  0  0  0  0  0  0  0  0  0
    0.8681   -2.7690   -1.3781 H   0  0  0  0  0  0  0  0  0  0  0  0
    3.1441   -3.1994   -0.5194 H   0  0  0  0  0  0  0  0  0  0  0  0
    2.9121    0.2892    1.9998 H   0  0  0  0  0  0  0  0  0  0  0  0
    1.0697    2.2598    2.5124 H   0  0  0  0  0  0  0  0  0  0  0  0
   -2.8977    3.2627    1.1617 H   0  0  0  0  0  0  0  0  0  0  0  0
   -2.9252    1.2882   -0.3226 H   0  0  0  0  0  0  0  0  0  0  0  0
  1  2  1  0
  2  3  1  0
  3  4  1  0
  4  5  2  0
  5  6  1  0
  6  7  2  0
  7  8  1  0
  7  9  1  0
  9 10  2  0
 10 11  1  0
 11 12  2  0
 12 13  1  0
 13 14  1  0
 13 15  2  0
 15 16  1  0
 16 17  2  0
 17  3  1  0
 10  4  1  0
 17 11  1  0
  1 18  1  0
  1 19  1  0
  1 20  1  0
  2 21  1  0
  2 22  1  0
  5 23  1  0
  6 24  1  0
  9 25  1  0
 12 26  1  0
 15 27  1  0
 16 28  1  0
M  END
