
     RDKit          3D

 17 17  0  0  0  0  0  0  0  0999 V2000
    2.0419    0.6456    0.2804 C   0  0  0  0  0  0  0  0  0  0  0  0
    0.5597    0.4500    0.0724 C   0  0  0  0  0  0  0  0  0  0  0  0
   -0.3006    1.5478   -0.1310 C   0  0  0  0  0  0  0  0  0  0  0  0
    0.3173    3.3459   -0.2199 Br  0  0  0  0  0  0  0  0  0  0  0  0
   -1.6776    1.3640   -0.2922 C   0  0  0  0  0  0  0  0  0  0  0  0
   -2.2235    0.0843   -0.2718 C   0  0  0  0  0  0  0  0  0  0  0  0
   -1.3937   -1.0258   -0.1088 C   0  0  0  0  0  0  0  0  0  0  0  0
   -2.2455   -2.7265   -0.1694 Br  0  0  0  0  0  0  0  0  0  0  0  0
   -0.0056   -0.8537    0.0494 C   0  0  0  0  0  0  0  0  0  0  0  0
    0.8541   -2.0592    0.1773 C   0  0  0  0  0  0  0  0  0  0  0  0
    2.0002   -2.1053   -0.2524 O   0  0  0  0  0  0  0  0  0  0  0  0
    2.4291   -0.0508    1.0314 H   0  0  0  0  0  0  0  0  0  0  0  0
    2.5768    0.5067   -0.6641 H   0  0  0  0  0  0  0  0  0  0  0  0
    2.2874    1.6346    0.6750 H   0  0  0  0  0  0  0  0  0  0  0  0
   -2.3365    2.2173   -0.4416 H   0  0  0  0  0  0  0  0  0  0  0  0
   -3.2969   -0.0347   -0.4042 H   0  0  0  0  0  0  0  0  0  0  0  0
    0.4134   -2.9402    0.6696 H   0  0  0  0  0  0  0  0  0  0  0  0
  1  2  1  0
  2  3  2  0
  3  4  1  0
  3  5  1  0
  5  6  2  0
  6  7  1  0
  7  8  1  0
  7  9  2  0
  9 10  1  0
 10 11  2  0
  9  2  1  0
  1 12  1  0
  1 13  1  0
  1 14  1  0
  5 15  1  0
  6 16  1  0
 10 17  1  0
M  END
