
     RDKit          3D

 16 16  0  0  0  0  0  0  0  0999 V2000
   -1.5976   -1.5545   -0.0350 N   0  0  0  0  0  0  0  0  0  0  0  0
   -0.7665   -0.4013   -0.0147 C   0  0  0  0  0  0  0  0  0  0  0  0
   -1.2667    0.8799   -0.3040 C   0  0  0  0  0  0  0  0  0  0  0  0
   -3.1189    1.1613   -0.6192 Br  0  0  0  0  0  0  0  0  0  0  0  0
   -0.4193    1.9899   -0.3213 C   0  0  0  0  0  0  0  0  0  0  0  0
    0.9434    1.8286   -0.0710 C   0  0  0  0  0  0  0  0  0  0  0  0
    1.4633    0.5525    0.1569 C   0  0  0  0  0  0  0  0  0  0  0  0
    3.3314    0.3868    0.4602 Br  0  0  0  0  0  0  0  0  0  0  0  0
    0.6318   -0.5798    0.1155 C   0  0  0  0  0  0  0  0  0  0  0  0
    1.1256   -1.8848    0.3883 N   0  0  0  0  0  0  0  0  0  0  0  0
   -1.2578   -2.2320    0.6466 H   0  0  0  0  0  0  0  0  0  0  0  0
   -2.5720   -1.3125    0.1333 H   0  0  0  0  0  0  0  0  0  0  0  0
   -0.8123    2.9844   -0.5178 H   0  0  0  0  0  0  0  0  0  0  0  0
    1.5926    2.7007   -0.0662 H   0  0  0  0  0  0  0  0  0  0  0  0
    2.1242   -1.9501    0.2019 H   0  0  0  0  0  0  0  0  0  0  0  0
    0.5988   -2.5690   -0.1534 H   0  0  0  0  0  0  0  0  0  0  0  0
  1  2  1  0
  2  3  2  0
  3  4  1  0
  3  5  1  0
  5  6  2  0
  6  7  1  0
  7  8  1  0
  7  9  2  0
  9 10  1  0
  9  2  1  0
  1 11  1  0
  1 12  1  0
  5 13  1  0
  6 14  1  0
 10 15  1  0
 10 16  1  0
M  END
