
     RDKit          3D

 15 16  0  0  0  0  0  0  0  0999 V2000
   -3.4325   -1.6481    0.2890 Br  0  0  0  0  0  0  0  0  0  0  0  0
   -1.8587   -0.6704    0.1214 C   0  0  0  0  0  0  0  0  0  0  0  0
   -1.9537    0.7669   -0.1049 C   0  0  0  0  0  0  0  0  0  0  0  0
   -0.8538    1.5344   -0.2354 C   0  0  0  0  0  0  0  0  0  0  0  0
    0.4365    0.9401   -0.1522 C   0  0  0  0  0  0  0  0  0  0  0  0
    1.6397    1.4672   -0.2455 N   0  0  0  0  0  0  0  0  0  0  0  0
    2.5084    0.4158   -0.0866 C   0  0  0  0  0  0  0  0  0  0  0  0
    1.8248   -0.7604    0.1050 C   0  0  0  0  0  0  0  0  0  0  0  0
    2.6106   -2.4674    0.3682 Br  0  0  0  0  0  0  0  0  0  0  0  0
    0.4916   -0.4362    0.0648 N   0  0  0  0  0  0  0  0  0  0  0  0
   -0.6417   -1.2360    0.2007 C   0  0  0  0  0  0  0  0  0  0  0  0
   -2.9397    1.2185   -0.1681 H   0  0  0  0  0  0  0  0  0  0  0  0
   -0.9216    2.6034   -0.4038 H   0  0  0  0  0  0  0  0  0  0  0  0
    3.5798    0.5669   -0.1194 H   0  0  0  0  0  0  0  0  0  0  0  0
   -0.4897   -2.2947    0.3667 H   0  0  0  0  0  0  0  0  0  0  0  0
  1  2  1  0
  2  3  1  0
  3  4  2  0
  4  5  1  0
  5  6  2  0
  6  7  1  0
  7  8  2  0
  8  9  1  0
  8 10  1  0
 10 11  1  0
 11  2  2  0
 10  5  1  0
  3 12  1  0
  4 13  1  0
  7 14  1  0
 11 15  1  0
M  END
