
     RDKit          3D

 15 16  0  0  0  0  0  0  0  0999 V2000
    3.9231   -0.4984    0.0410 Br  0  0  0  0  0  0  0  0  0  0  0  0
    2.0774   -0.2170    0.0168 C   0  0  0  0  0  0  0  0  0  0  0  0
    1.6120    1.1595   -0.1258 C   0  0  0  0  0  0  0  0  0  0  0  0
    0.2907    1.4083   -0.1481 C   0  0  0  0  0  0  0  0  0  0  0  0
   -0.6048    0.3456   -0.0344 N   0  0  0  0  0  0  0  0  0  0  0  0
   -1.9767    0.3261   -0.0285 C   0  0  0  0  0  0  0  0  0  0  0  0
   -3.1723    1.7918   -0.1784 Br  0  0  0  0  0  0  0  0  0  0  0  0
   -2.3372   -0.9923    0.1104 C   0  0  0  0  0  0  0  0  0  0  0  0
   -1.2281   -1.7979    0.1915 N   0  0  0  0  0  0  0  0  0  0  0  0
   -0.1981   -0.9810    0.1031 C   0  0  0  0  0  0  0  0  0  0  0  0
    1.2026   -1.2378    0.1261 C   0  0  0  0  0  0  0  0  0  0  0  0
    2.3360    1.9635   -0.2119 H   0  0  0  0  0  0  0  0  0  0  0  0
   -0.1178    2.4056   -0.2512 H   0  0  0  0  0  0  0  0  0  0  0  0
   -3.3349   -1.4096    0.1568 H   0  0  0  0  0  0  0  0  0  0  0  0
    1.5283   -2.2664    0.2327 H   0  0  0  0  0  0  0  0  0  0  0  0
  1  2  1  0
  2  3  1  0
  3  4  2  0
  4  5  1  0
  5  6  1  0
  6  7  1  0
  6  8  2  0
  8  9  1  0
  9 10  2  0
 10 11  1  0
 11  2  2  0
 10  5  1  0
  3 12  1  0
  4 13  1  0
  8 14  1  0
 11 15  1  0
M  END
