
     RDKit          3D

 21 23  0  0  0  0  0  0  0  0999 V2000
   -5.3698    0.3314    0.4833 Br  0  0  0  0  0  0  0  0  0  0  0  0
   -3.5033    0.1969    0.2049 C   0  0  0  0  0  0  0  0  0  0  0  0
   -3.0176   -0.0491   -1.0700 C   0  0  0  0  0  0  0  0  0  0  0  0
   -1.6390   -0.1497   -1.2826 C   0  0  0  0  0  0  0  0  0  0  0  0
   -0.7245   -0.0029   -0.2061 C   0  0  0  0  0  0  0  0  0  0  0  0
   -1.2498    0.2439    1.0631 C   0  0  0  0  0  0  0  0  0  0  0  0
   -2.6379    0.3471    1.2882 C   0  0  0  0  0  0  0  0  0  0  0  0
   -0.0094    0.3930    2.2380 S   0  0  0  0  0  0  0  0  0  0  0  0
    1.2408    0.1347    1.0927 C   0  0  0  0  0  0  0  0  0  0  0  0
    2.6268    0.1163    1.3508 C   0  0  0  0  0  0  0  0  0  0  0  0
    3.5013   -0.1102    0.2882 C   0  0  0  0  0  0  0  0  0  0  0  0
    5.3652   -0.1392    0.6109 Br  0  0  0  0  0  0  0  0  0  0  0  0
    3.0263   -0.3141   -0.9981 C   0  0  0  0  0  0  0  0  0  0  0  0
    1.6496   -0.2939   -1.2435 C   0  0  0  0  0  0  0  0  0  0  0  0
    0.7261   -0.0665   -0.1889 C   0  0  0  0  0  0  0  0  0  0  0  0
   -3.6966   -0.1655   -1.9110 H   0  0  0  0  0  0  0  0  0  0  0  0
   -1.2694   -0.3429   -2.2869 H   0  0  0  0  0  0  0  0  0  0  0  0
   -3.0181    0.5399    2.2873 H   0  0  0  0  0  0  0  0  0  0  0  0
    2.9986    0.2761    2.3588 H   0  0  0  0  0  0  0  0  0  0  0  0
    3.7123   -0.4903   -1.8229 H   0  0  0  0  0  0  0  0  0  0  0  0
    1.2884   -0.4550   -2.2565 H   0  0  0  0  0  0  0  0  0  0  0  0
  1  2  1  0
  2  3  2  0
  3  4  1  0
  4  5  2  0
  5  6  1  0
  6  7  2  0
  6  8  1  0
  8  9  1  0
  9 10  2  0
 10 11  1  0
 11 12  1  0
 11 13  2  0
 13 14  1  0
 14 15  2  0
  7  2  1  0
 15  9  1  0
 15  5  1  0
  3 16  1  0
  4 17  1  0
  7 18  1  0
 10 19  1  0
 13 20  1  0
 14 21  1  0
M  END
