
     RDKit          3D

 16 17  0  0  0  0  0  0  0  0999 V2000
   -4.3011   -0.2931   -0.4346 Br  0  0  0  0  0  0  0  0  0  0  0  0
   -2.4625    0.0746   -0.2457 C   0  0  0  0  0  0  0  0  0  0  0  0
   -2.0030    1.3768   -0.1831 C   0  0  0  0  0  0  0  0  0  0  0  0
   -0.6962    1.6988   -0.0481 N   0  0  0  0  0  0  0  0  0  0  0  0
    0.1867    0.6823    0.0274 C   0  0  0  0  0  0  0  0  0  0  0  0
    1.5370    0.9592    0.1662 C   0  0  0  0  0  0  0  0  0  0  0  0
    2.4625   -0.0746    0.2457 C   0  0  0  0  0  0  0  0  0  0  0  0
    4.3011    0.2931    0.4346 Br  0  0  0  0  0  0  0  0  0  0  0  0
    2.0030   -1.3768    0.1831 C   0  0  0  0  0  0  0  0  0  0  0  0
    0.6962   -1.6988    0.0480 N   0  0  0  0  0  0  0  0  0  0  0  0
   -0.1867   -0.6823   -0.0274 C   0  0  0  0  0  0  0  0  0  0  0  0
   -1.5370   -0.9592   -0.1662 C   0  0  0  0  0  0  0  0  0  0  0  0
   -2.6804    2.2244   -0.2401 H   0  0  0  0  0  0  0  0  0  0  0  0
    1.8587    1.9959    0.2117 H   0  0  0  0  0  0  0  0  0  0  0  0
    2.6804   -2.2244    0.2401 H   0  0  0  0  0  0  0  0  0  0  0  0
   -1.8587   -1.9959   -0.2117 H   0  0  0  0  0  0  0  0  0  0  0  0
  1  2  1  0
  2  3  2  0
  3  4  1  0
  4  5  2  0
  5  6  1  0
  6  7  2  0
  7  8  1  0
  7  9  1  0
  9 10  2  0
 10 11  1  0
 11 12  2  0
 12  2  1  0
 11  5  1  0
  3 13  1  0
  6 14  1  0
  9 15  1  0
 12 16  1  0
M  END
