
     RDKit          3D

 16 17  0  0  0  0  0  0  0  0999 V2000
    4.0229   -1.0441   -0.5532 Br  0  0  0  0  0  0  0  0  0  0  0  0
    2.2467   -0.4492   -0.3001 C   0  0  0  0  0  0  0  0  0  0  0  0
    1.9865    0.9116   -0.1788 C   0  0  0  0  0  0  0  0  0  0  0  0
    0.6741    1.3431    0.0076 C   0  0  0  0  0  0  0  0  0  0  0  0
   -0.3761    0.4107    0.0724 C   0  0  0  0  0  0  0  0  0  0  0  0
   -1.7030    0.8142    0.2588 C   0  0  0  0  0  0  0  0  0  0  0  0
   -2.6876   -0.1525    0.3134 C   0  0  0  0  0  0  0  0  0  0  0  0
   -4.4906    0.3619    0.5644 Br  0  0  0  0  0  0  0  0  0  0  0  0
   -2.4030   -1.4611    0.1926 N   0  0  0  0  0  0  0  0  0  0  0  0
   -1.1002   -1.8633    0.0092 N   0  0  0  0  0  0  0  0  0  0  0  0
   -0.1047   -0.9655   -0.0512 C   0  0  0  0  0  0  0  0  0  0  0  0
    1.2087   -1.3776   -0.2365 C   0  0  0  0  0  0  0  0  0  0  0  0
    2.7926    1.6396   -0.2277 H   0  0  0  0  0  0  0  0  0  0  0  0
    0.4774    2.4093    0.1018 H   0  0  0  0  0  0  0  0  0  0  0  0
   -1.9581    1.8638    0.3589 H   0  0  0  0  0  0  0  0  0  0  0  0
    1.4142   -2.4410   -0.3315 H   0  0  0  0  0  0  0  0  0  0  0  0
  1  2  1  0
  2  3  2  0
  3  4  1  0
  4  5  2  0
  5  6  1  0
  6  7  2  0
  7  8  1  0
  7  9  1  0
  9 10  2  0
 10 11  1  0
 11 12  2  0
 12  2  1  0
 11  5  1  0
  3 13  1  0
  4 14  1  0
  6 15  1  0
 12 16  1  0
M  END
