
     RDKit          3D

 29 31  0  0  0  0  0  0  0  0999 V2000
   -2.8728   -0.1473   -0.6031 C   0  0  0  0  0  0  0  0  0  0  0  0
   -1.4063   -0.1001    0.5145 Si  0  0  0  0  0  4  0  0  0  0  0  0
   -1.8029   -0.1855    2.3138 C   0  0  0  0  0  0  0  0  0  0  0  0
   -0.2138    1.3054    0.0955 C   0  0  0  0  0  0  0  0  0  0  0  0
   -0.4598    2.6741    0.2037 C   0  0  0  0  0  0  0  0  0  0  0  0
    0.5529    3.5616   -0.1561 C   0  0  0  0  0  0  0  0  0  0  0  0
    0.2520    5.4242   -0.0213 Br  0  0  0  0  0  0  0  0  0  0  0  0
    1.7886    3.0947   -0.6155 C   0  0  0  0  0  0  0  0  0  0  0  0
    2.0300    1.7198   -0.7221 C   0  0  0  0  0  0  0  0  0  0  0  0
    1.0329    0.8108   -0.3683 C   0  0  0  0  0  0  0  0  0  0  0  0
    1.1189   -0.6576   -0.4190 C   0  0  0  0  0  0  0  0  0  0  0  0
    2.2136   -1.4178   -0.8305 C   0  0  0  0  0  0  0  0  0  0  0  0
    2.1345   -2.8155   -0.8198 C   0  0  0  0  0  0  0  0  0  0  0  0
    0.9635   -3.4537   -0.3987 C   0  0  0  0  0  0  0  0  0  0  0  0
    0.8820   -5.3435   -0.3936 Br  0  0  0  0  0  0  0  0  0  0  0  0
   -0.1443   -2.7171    0.0173 C   0  0  0  0  0  0  0  0  0  0  0  0
   -0.0599   -1.3249    0.0046 C   0  0  0  0  0  0  0  0  0  0  0  0
   -3.4443   -1.0706   -0.4667 H   0  0  0  0  0  0  0  0  0  0  0  0
   -3.5475    0.6916   -0.4058 H   0  0  0  0  0  0  0  0  0  0  0  0
   -2.5769   -0.0936   -1.6556 H   0  0  0  0  0  0  0  0  0  0  0  0
   -0.8963   -0.1536    2.9263 H   0  0  0  0  0  0  0  0  0  0  0  0
   -2.3349   -1.1103    2.5579 H   0  0  0  0  0  0  0  0  0  0  0  0
   -2.4380    0.6520    2.6189 H   0  0  0  0  0  0  0  0  0  0  0  0
   -1.4169    3.0449    0.5596 H   0  0  0  0  0  0  0  0  0  0  0  0
    2.5723    3.7949   -0.8938 H   0  0  0  0  0  0  0  0  0  0  0  0
    2.9971    1.3819   -1.0812 H   0  0  0  0  0  0  0  0  0  0  0  0
    3.1334   -0.9457   -1.1617 H   0  0  0  0  0  0  0  0  0  0  0  0
    2.9932   -3.3988   -1.1425 H   0  0  0  0  0  0  0  0  0  0  0  0
   -1.0503   -3.2205    0.3430 H   0  0  0  0  0  0  0  0  0  0  0  0
  1  2  1  0
  2  3  1  0
  2  4  1  0
  4  5  2  0
  5  6  1  0
  6  7  1  0
  6  8  2  0
  8  9  1  0
  9 10  2  0
 10 11  1  0
 11 12  2  0
 12 13  1  0
 13 14  2  0
 14 15  1  0
 14 16  1  0
 16 17  2  0
 17  2  1  0
 10  4  1  0
 17 11  1  0
  1 18  1  0
  1 19  1  0
  1 20  1  0
  3 21  1  0
  3 22  1  0
  3 23  1  0
  5 24  1  0
  8 25  1  0
  9 26  1  0
 12 27  1  0
 13 28  1  0
 16 29  1  0
M  END
