
     RDKit          3D

 22 24  0  0  0  0  0  0  0  0999 V2000
    1.5361    2.9363   -0.3349 O   0  0  0  0  0  0  0  0  0  0  0  0
    0.8620    1.9222   -0.2331 C   0  0  0  0  0  0  0  0  0  0  0  0
   -0.6498    1.9797   -0.3881 C   0  0  0  0  0  0  0  0  0  0  0  0
   -1.2110    3.0409   -0.6167 O   0  0  0  0  0  0  0  0  0  0  0  0
   -1.4193    0.7347   -0.2575 C   0  0  0  0  0  0  0  0  0  0  0  0
   -2.8128    0.7500   -0.3943 C   0  0  0  0  0  0  0  0  0  0  0  0
   -3.5125   -0.4415   -0.2657 C   0  0  0  0  0  0  0  0  0  0  0  0
   -5.3875   -0.4808   -0.4398 Br  0  0  0  0  0  0  0  0  0  0  0  0
   -2.7985   -1.5980   -0.0068 C   0  0  0  0  0  0  0  0  0  0  0  0
   -1.4498   -1.6301    0.1284 N   0  0  0  0  0  0  0  0  0  0  0  0
   -0.7599   -0.4631    0.0030 C   0  0  0  0  0  0  0  0  0  0  0  0
    0.7065   -0.5189    0.1534 C   0  0  0  0  0  0  0  0  0  0  0  0
    1.2669   -1.7334    0.4071 N   0  0  0  0  0  0  0  0  0  0  0  0
    2.6135   -1.8039    0.5484 C   0  0  0  0  0  0  0  0  0  0  0  0
    3.4501   -0.7064    0.4485 C   0  0  0  0  0  0  0  0  0  0  0  0
    5.3130   -0.8880    0.6578 Br  0  0  0  0  0  0  0  0  0  0  0  0
    2.8826    0.5333    0.1900 C   0  0  0  0  0  0  0  0  0  0  0  0
    1.4932    0.6239    0.0412 C   0  0  0  0  0  0  0  0  0  0  0  0
   -3.3358    1.6822   -0.5980 H   0  0  0  0  0  0  0  0  0  0  0  0
   -3.2904   -2.5609    0.1041 H   0  0  0  0  0  0  0  0  0  0  0  0
    2.9989   -2.8002    0.7493 H   0  0  0  0  0  0  0  0  0  0  0  0
    3.5046    1.4219    0.1037 H   0  0  0  0  0  0  0  0  0  0  0  0
  1  2  2  0
  2  3  1  0
  3  4  2  0
  3  5  1  0
  5  6  2  0
  6  7  1  0
  7  8  1  0
  7  9  2  0
  9 10  1  0
 10 11  2  0
 11 12  1  0
 12 13  2  0
 13 14  1  0
 14 15  2  0
 15 16  1  0
 15 17  1  0
 17 18  2  0
 18  2  1  0
 11  5  1  0
 18 12  1  0
  6 19  1  0
  9 20  1  0
 14 21  1  0
 17 22  1  0
M  END
