
     RDKit          3D

 22 24  0  0  0  0  0  0  0  0999 V2000
    1.0827   -3.0302    0.8600 O   0  0  0  0  0  0  0  0  0  0  0  0
    0.5659   -1.9646    0.5588 C   0  0  0  0  0  0  0  0  0  0  0  0
   -0.9478   -1.8197    0.5318 C   0  0  0  0  0  0  0  0  0  0  0  0
   -1.6677   -2.7668    0.8108 O   0  0  0  0  0  0  0  0  0  0  0  0
   -1.5245   -0.5192    0.1638 C   0  0  0  0  0  0  0  0  0  0  0  0
   -2.9140   -0.3492    0.1284 C   0  0  0  0  0  0  0  0  0  0  0  0
   -3.4294    0.8905   -0.2227 C   0  0  0  0  0  0  0  0  0  0  0  0
   -5.2898    1.1768   -0.2870 Br  0  0  0  0  0  0  0  0  0  0  0  0
   -2.5428    1.9091   -0.5238 C   0  0  0  0  0  0  0  0  0  0  0  0
   -1.1954    1.7613   -0.4944 N   0  0  0  0  0  0  0  0  0  0  0  0
   -0.6860    0.5465   -0.1504 C   0  0  0  0  0  0  0  0  0  0  0  0
    0.7821    0.4059   -0.1242 C   0  0  0  0  0  0  0  0  0  0  0  0
    1.5246    1.5008   -0.4458 N   0  0  0  0  0  0  0  0  0  0  0  0
    2.8758    1.3902   -0.4271 C   0  0  0  0  0  0  0  0  0  0  0  0
    3.5418    0.2228   -0.0982 C   0  0  0  0  0  0  0  0  0  0  0  0
    5.4238    0.1507   -0.0957 Br  0  0  0  0  0  0  0  0  0  0  0  0
    2.7884   -0.8953    0.2303 C   0  0  0  0  0  0  0  0  0  0  0  0
    1.3915   -0.7985    0.2159 C   0  0  0  0  0  0  0  0  0  0  0  0
   -3.5763   -1.1773    0.3727 H   0  0  0  0  0  0  0  0  0  0  0  0
   -2.8862    2.9012   -0.8055 H   0  0  0  0  0  0  0  0  0  0  0  0
    3.4109    2.2982   -0.6930 H   0  0  0  0  0  0  0  0  0  0  0  0
    3.2725   -1.8332    0.4951 H   0  0  0  0  0  0  0  0  0  0  0  0
  1  2  2  0
  2  3  1  0
  3  4  2  0
  3  5  1  0
  5  6  2  0
  6  7  1  0
  7  8  1  0
  7  9  2  0
  9 10  1  0
 10 11  2  0
 11 12  1  0
 12 13  2  0
 13 14  1  0
 14 15  2  0
 15 16  1  0
 15 17  1  0
 17 18  2  0
 18  2  1  0
 11  5  1  0
 18 12  1  0
  6 19  1  0
  9 20  1  0
 14 21  1  0
 17 22  1  0
M  END
