
     RDKit          3D

 22 24  0  0  0  0  0  0  0  0999 V2000
    5.3782    0.4933    0.0275 Br  0  0  0  0  0  0  0  0  0  0  0  0
    3.4948    0.4826    0.0093 C   0  0  0  0  0  0  0  0  0  0  0  0
    2.7771    1.6567   -0.0597 C   0  0  0  0  0  0  0  0  0  0  0  0
    1.4251    1.7058   -0.0758 N   0  0  0  0  0  0  0  0  0  0  0  0
    0.7101    0.5521   -0.0221 C   0  0  0  0  0  0  0  0  0  0  0  0
    1.3867   -0.6919    0.0503 C   0  0  0  0  0  0  0  0  0  0  0  0
    0.6728   -1.8924    0.1065 C   0  0  0  0  0  0  0  0  0  0  0  0
   -0.7146   -1.8778    0.0919 C   0  0  0  0  0  0  0  0  0  0  0  0
   -1.4017   -0.6625    0.0210 C   0  0  0  0  0  0  0  0  0  0  0  0
   -2.8051   -0.6506    0.0064 C   0  0  0  0  0  0  0  0  0  0  0  0
   -3.4833    0.5562   -0.0640 C   0  0  0  0  0  0  0  0  0  0  0  0
   -5.3660    0.6066   -0.0854 Br  0  0  0  0  0  0  0  0  0  0  0  0
   -2.7397    1.7149   -0.1177 C   0  0  0  0  0  0  0  0  0  0  0  0
   -1.3869    1.7355   -0.1053 N   0  0  0  0  0  0  0  0  0  0  0  0
   -0.6977    0.5669   -0.0368 C   0  0  0  0  0  0  0  0  0  0  0  0
    2.7900   -0.7096    0.0652 C   0  0  0  0  0  0  0  0  0  0  0  0
    3.2664    2.6253   -0.1059 H   0  0  0  0  0  0  0  0  0  0  0  0
    1.1906   -2.8480    0.1620 H   0  0  0  0  0  0  0  0  0  0  0  0
   -1.2536   -2.8223    0.1363 H   0  0  0  0  0  0  0  0  0  0  0  0
   -3.3646   -1.5819    0.0499 H   0  0  0  0  0  0  0  0  0  0  0  0
   -3.2074    2.6935   -0.1739 H   0  0  0  0  0  0  0  0  0  0  0  0
    3.3287   -1.6524    0.1203 H   0  0  0  0  0  0  0  0  0  0  0  0
  1  2  1  0
  2  3  2  0
  3  4  1  0
  4  5  2  0
  5  6  1  0
  6  7  1  0
  7  8  2  0
  8  9  1  0
  9 10  2  0
 10 11  1  0
 11 12  1  0
 11 13  2  0
 13 14  1  0
 14 15  2  0
  6 16  2  0
 16  2  1  0
 15  5  1  0
 15  9  1  0
  3 17  1  0
  7 18  1  0
  8 19  1  0
 10 20  1  0
 13 21  1  0
 16 22  1  0
M  END
