
     RDKit          3D

 16 17  0  0  0  0  0  0  0  0999 V2000
    4.1317   -1.2228   -0.2023 Br  0  0  0  0  0  0  0  0  0  0  0  0
    2.4107   -0.4610   -0.1146 C   0  0  0  0  0  0  0  0  0  0  0  0
    2.2415    0.9074   -0.0885 C   0  0  0  0  0  0  0  0  0  0  0  0
    1.0289    1.5003   -0.0260 N   0  0  0  0  0  0  0  0  0  0  0  0
   -0.0744    0.7050    0.0129 C   0  0  0  0  0  0  0  0  0  0  0  0
   -1.3747    1.2151    0.0782 C   0  0  0  0  0  0  0  0  0  0  0  0
   -1.6804    3.0941    0.1174 Br  0  0  0  0  0  0  0  0  0  0  0  0
   -2.4935    0.3849    0.1173 C   0  0  0  0  0  0  0  0  0  0  0  0
   -2.2793   -0.9742    0.0893 C   0  0  0  0  0  0  0  0  0  0  0  0
   -1.0528   -1.5279    0.0266 N   0  0  0  0  0  0  0  0  0  0  0  0
    0.0136   -0.7040   -0.0102 C   0  0  0  0  0  0  0  0  0  0  0  0
    1.2792   -1.2653   -0.0746 C   0  0  0  0  0  0  0  0  0  0  0  0
    3.0857    1.5905   -0.1172 H   0  0  0  0  0  0  0  0  0  0  0  0
   -3.5005    0.7829    0.1679 H   0  0  0  0  0  0  0  0  0  0  0  0
   -3.1076   -1.6770    0.1170 H   0  0  0  0  0  0  0  0  0  0  0  0
    1.3717   -2.3480   -0.0933 H   0  0  0  0  0  0  0  0  0  0  0  0
  1  2  1  0
  2  3  2  0
  3  4  1  0
  4  5  2  0
  5  6  1  0
  6  7  1  0
  6  8  2  0
  8  9  1  0
  9 10  2  0
 10 11  1  0
 11 12  2  0
 12  2  1  0
 11  5  1  0
  3 13  1  0
  8 14  1  0
  9 15  1  0
 12 16  1  0
M  END
