
     RDKit          3D

 15 16  0  0  0  0  0  0  0  0999 V2000
   -2.8210   -2.3746   -0.2098 Cl  0  0  0  0  0  0  0  0  0  0  0  0
   -1.6391   -1.1325   -0.1126 C   0  0  0  0  0  0  0  0  0  0  0  0
   -2.0738    0.2523   -0.0788 C   0  0  0  0  0  0  0  0  0  0  0  0
   -1.1880    1.2669   -0.0028 C   0  0  0  0  0  0  0  0  0  0  0  0
   -1.7335    3.0503    0.0413 Br  0  0  0  0  0  0  0  0  0  0  0  0
    0.2140    0.9815    0.0462 C   0  0  0  0  0  0  0  0  0  0  0  0
    1.2759    1.7636    0.1210 N   0  0  0  0  0  0  0  0  0  0  0  0
    2.3583    0.9219    0.1353 C   0  0  0  0  0  0  0  0  0  0  0  0
    1.9562   -0.3885    0.0687 C   0  0  0  0  0  0  0  0  0  0  0  0
    3.1067   -1.8979    0.0607 Br  0  0  0  0  0  0  0  0  0  0  0  0
    0.5848   -0.3650    0.0111 N   0  0  0  0  0  0  0  0  0  0  0  0
   -0.3287   -1.4138   -0.0674 C   0  0  0  0  0  0  0  0  0  0  0  0
   -3.1415    0.4492   -0.1169 H   0  0  0  0  0  0  0  0  0  0  0  0
    3.3675    1.3097    0.1929 H   0  0  0  0  0  0  0  0  0  0  0  0
    0.0622   -2.4232   -0.0889 H   0  0  0  0  0  0  0  0  0  0  0  0
  1  2  1  0
  2  3  1  0
  3  4  2  0
  4  5  1  0
  4  6  1  0
  6  7  2  0
  7  8  1  0
  8  9  2  0
  9 10  1  0
  9 11  1  0
 11 12  1  0
 12  2  2  0
 11  6  1  0
  3 13  1  0
  8 14  1  0
 12 15  1  0
M  END
