
     RDKit          3D

 21 21  0  0  0  0  0  0  0  0999 V2000
   -2.8513    0.7115    1.2104 O   0  0  0  0  0  0  0  0  0  0  0  0
   -2.5083   -0.1313    0.3980 C   0  0  0  0  0  0  0  0  0  0  0  0
   -2.6319   -1.4412    0.6816 O   0  0  0  0  0  0  0  0  0  0  0  0
   -2.0031    0.1371   -0.9914 C   0  0  0  0  0  0  0  0  0  0  0  0
   -0.7216   -0.6222   -1.3227 C   0  0  0  0  0  0  0  0  0  0  0  0
    0.4641   -0.1687   -0.5043 C   0  0  0  0  0  0  0  0  0  0  0  0
    1.1304    1.0251   -0.8158 C   0  0  0  0  0  0  0  0  0  0  0  0
    2.2156    1.4452   -0.0443 C   0  0  0  0  0  0  0  0  0  0  0  0
    3.1030    3.0573   -0.4807 Br  0  0  0  0  0  0  0  0  0  0  0  0
    2.6511    0.6915    1.0427 C   0  0  0  0  0  0  0  0  0  0  0  0
    1.9890   -0.4933    1.3542 C   0  0  0  0  0  0  0  0  0  0  0  0
    2.5649   -1.5276    2.8289 Br  0  0  0  0  0  0  0  0  0  0  0  0
    0.9031   -0.9261    0.5910 C   0  0  0  0  0  0  0  0  0  0  0  0
   -3.0011   -1.4489    1.5905 H   0  0  0  0  0  0  0  0  0  0  0  0
   -2.7985   -0.1425   -1.6915 H   0  0  0  0  0  0  0  0  0  0  0  0
   -1.8467    1.2175   -1.0924 H   0  0  0  0  0  0  0  0  0  0  0  0
   -0.4831   -0.4783   -2.3844 H   0  0  0  0  0  0  0  0  0  0  0  0
   -0.8668   -1.7025   -1.1981 H   0  0  0  0  0  0  0  0  0  0  0  0
    0.8014    1.6266   -1.6607 H   0  0  0  0  0  0  0  0  0  0  0  0
    3.4949    1.0240    1.6403 H   0  0  0  0  0  0  0  0  0  0  0  0
    0.3949   -1.8533    0.8489 H   0  0  0  0  0  0  0  0  0  0  0  0
  1  2  2  0
  2  3  1  0
  2  4  1  0
  4  5  1  0
  5  6  1  0
  6  7  2  0
  7  8  1  0
  8  9  1  0
  8 10  2  0
 10 11  1  0
 11 12  1  0
 11 13  2  0
 13  6  1  0
  3 14  1  0
  4 15  1  0
  4 16  1  0
  5 17  1  0
  5 18  1  0
  7 19  1  0
 10 20  1  0
 13 21  1  0
M  END
