
     RDKit          3D

 22 22  0  0  0  0  0  0  0  0999 V2000
    4.0018    0.9197    0.0960 O   0  0  0  0  0  0  0  0  0  0  0  0
    3.4660   -0.1402    0.3690 C   0  0  0  0  0  0  0  0  0  0  0  0
    4.1985   -1.1958    0.7741 O   0  0  0  0  0  0  0  0  0  0  0  0
    1.9999   -0.4618    0.3178 C   0  0  0  0  0  0  0  0  0  0  0  0
    1.1935    0.7421   -0.1613 C   0  0  0  0  0  0  0  0  0  0  0  0
   -0.2837    0.4363   -0.2136 C   0  0  0  0  0  0  0  0  0  0  0  0
   -0.8532   -0.1184   -1.3690 C   0  0  0  0  0  0  0  0  0  0  0  0
   -2.2184   -0.4200   -1.4130 C   0  0  0  0  0  0  0  0  0  0  0  0
   -2.9226   -1.1668   -3.0084 Br  0  0  0  0  0  0  0  0  0  0  0  0
   -3.0277   -0.1739   -0.3024 C   0  0  0  0  0  0  0  0  0  0  0  0
   -4.3634   -0.4745   -0.3582 O   0  0  0  0  0  0  0  0  0  0  0  0
   -2.4627    0.3743    0.8525 C   0  0  0  0  0  0  0  0  0  0  0  0
   -3.5273    0.7192    2.3838 Br  0  0  0  0  0  0  0  0  0  0  0  0
   -1.0994    0.6765    0.9006 C   0  0  0  0  0  0  0  0  0  0  0  0
    5.1225   -0.8678    0.7663 H   0  0  0  0  0  0  0  0  0  0  0  0
    1.6775   -0.7592    1.3223 H   0  0  0  0  0  0  0  0  0  0  0  0
    1.8566   -1.3091   -0.3625 H   0  0  0  0  0  0  0  0  0  0  0  0
    1.5350    1.0605   -1.1550 H   0  0  0  0  0  0  0  0  0  0  0  0
    1.3648    1.6037    0.4972 H   0  0  0  0  0  0  0  0  0  0  0  0
   -0.2289   -0.3147   -2.2387 H   0  0  0  0  0  0  0  0  0  0  0  0
   -4.7605   -0.2313    0.4973 H   0  0  0  0  0  0  0  0  0  0  0  0
   -0.6685    1.1012    1.8052 H   0  0  0  0  0  0  0  0  0  0  0  0
  1  2  2  0
  2  3  1  0
  2  4  1  0
  4  5  1  0
  5  6  1  0
  6  7  2  0
  7  8  1  0
  8  9  1  0
  8 10  2  0
 10 11  1  0
 10 12  1  0
 12 13  1  0
 12 14  2  0
 14  6  1  0
  3 15  1  0
  4 16  1  0
  4 17  1  0
  5 18  1  0
  5 19  1  0
  7 20  1  0
 11 21  1  0
 14 22  1  0
M  END
