
     RDKit          3D

 22 22  0  0  0  0  0  0  0  0999 V2000
   -2.8385   -1.2416    0.5277 O   0  0  0  0  0  0  0  0  0  0  0  0
   -2.6924   -0.0431    0.6957 C   0  0  0  0  0  0  0  0  0  0  0  0
   -3.0542    0.5359    1.8569 O   0  0  0  0  0  0  0  0  0  0  0  0
   -2.1761    0.9580   -0.3008 C   0  0  0  0  0  0  0  0  0  0  0  0
   -1.2230    0.3250   -1.3122 C   0  0  0  0  0  0  0  0  0  0  0  0
    0.1331    0.0092   -0.7238 C   0  0  0  0  0  0  0  0  0  0  0  0
    1.1062    1.0113   -0.6035 C   0  0  0  0  0  0  0  0  0  0  0  0
    2.3533    0.7185   -0.0456 C   0  0  0  0  0  0  0  0  0  0  0  0
    3.6374    2.1074    0.0946 Br  0  0  0  0  0  0  0  0  0  0  0  0
    2.6451   -0.5731    0.4016 C   0  0  0  0  0  0  0  0  0  0  0  0
    3.8651   -0.8686    0.9512 O   0  0  0  0  0  0  0  0  0  0  0  0
    1.6788   -1.5741    0.2876 C   0  0  0  0  0  0  0  0  0  0  0  0
    2.0109   -3.3453    0.8806 Br  0  0  0  0  0  0  0  0  0  0  0  0
    0.4296   -1.2849   -0.2713 C   0  0  0  0  0  0  0  0  0  0  0  0
   -3.3788   -0.2087    2.4062 H   0  0  0  0  0  0  0  0  0  0  0  0
   -1.6790    1.7760    0.2333 H   0  0  0  0  0  0  0  0  0  0  0  0
   -3.0470    1.3696   -0.8228 H   0  0  0  0  0  0  0  0  0  0  0  0
   -1.0803    1.0173   -2.1520 H   0  0  0  0  0  0  0  0  0  0  0  0
   -1.6594   -0.5827   -1.7478 H   0  0  0  0  0  0  0  0  0  0  0  0
    0.8886    2.0206   -0.9472 H   0  0  0  0  0  0  0  0  0  0  0  0
    4.4013   -0.0556    0.9433 H   0  0  0  0  0  0  0  0  0  0  0  0
   -0.3206   -2.0709   -0.3517 H   0  0  0  0  0  0  0  0  0  0  0  0
  1  2  2  0
  2  3  1  0
  2  4  1  0
  4  5  1  0
  5  6  1  0
  6  7  2  0
  7  8  1  0
  8  9  1  0
  8 10  2  0
 10 11  1  0
 10 12  1  0
 12 13  1  0
 12 14  2  0
 14  6  1  0
  3 15  1  0
  4 16  1  0
  4 17  1  0
  5 18  1  0
  5 19  1  0
  7 20  1  0
 11 21  1  0
 14 22  1  0
M  END
