
     RDKit          3D

 14 15  0  0  0  0  0  0  0  0999 V2000
   -2.1293   -2.4028    0.4130 Cl  0  0  0  0  0  0  0  0  0  0  0  0
   -1.6304   -0.8131    0.0918 C   0  0  0  0  0  0  0  0  0  0  0  0
   -2.3417    0.3245   -0.1944 C   0  0  0  0  0  0  0  0  0  0  0  0
   -1.4896    1.3896   -0.3823 N   0  0  0  0  0  0  0  0  0  0  0  0
   -0.2843    0.8845   -0.2084 C   0  0  0  0  0  0  0  0  0  0  0  0
    1.0010    1.5263   -0.2809 C   0  0  0  0  0  0  0  0  0  0  0  0
    1.1053    3.3815   -0.6810 Br  0  0  0  0  0  0  0  0  0  0  0  0
    2.1155    0.8801   -0.0809 N   0  0  0  0  0  0  0  0  0  0  0  0
    2.0300   -0.4703    0.2098 C   0  0  0  0  0  0  0  0  0  0  0  0
    3.6671   -1.3275    0.4836 Br  0  0  0  0  0  0  0  0  0  0  0  0
    0.8706   -1.1479    0.2969 C   0  0  0  0  0  0  0  0  0  0  0  0
   -0.3105   -0.4599    0.0842 N   0  0  0  0  0  0  0  0  0  0  0  0
   -3.4151    0.4393   -0.2761 H   0  0  0  0  0  0  0  0  0  0  0  0
    0.8113   -2.2045    0.5247 H   0  0  0  0  0  0  0  0  0  0  0  0
  1  2  1  0
  2  3  2  0
  3  4  1  0
  4  5  2  0
  5  6  1  0
  6  7  1  0
  6  8  2  0
  8  9  1  0
  9 10  1  0
  9 11  2  0
 11 12  1  0
 12  2  1  0
 12  5  1  0
  3 13  1  0
 11 14  1  0
M  END
