
     RDKit          3D

 18 18  0  0  0  0  0  0  0  0999 V2000
    2.7556    0.2454    0.5533 C   0  0  0  0  0  0  0  0  0  0  0  0
    1.6483   -0.6463    0.5101 O   0  0  0  0  0  0  0  0  0  0  0  0
    0.4154   -0.1051    0.2296 C   0  0  0  0  0  0  0  0  0  0  0  0
    0.1323    1.2600    0.2148 C   0  0  0  0  0  0  0  0  0  0  0  0
   -1.1608    1.7077   -0.0809 C   0  0  0  0  0  0  0  0  0  0  0  0
   -1.4277    3.5946   -0.0697 Br  0  0  0  0  0  0  0  0  0  0  0  0
   -2.1875    0.7964   -0.3707 C   0  0  0  0  0  0  0  0  0  0  0  0
   -3.7836    1.3702   -0.7498 Cl  0  0  0  0  0  0  0  0  0  0  0  0
   -1.9031   -0.5807   -0.3514 C   0  0  0  0  0  0  0  0  0  0  0  0
   -3.2546   -1.8798   -0.7492 Br  0  0  0  0  0  0  0  0  0  0  0  0
   -0.6115   -1.0428   -0.0151 C   0  0  0  0  0  0  0  0  0  0  0  0
   -0.2663   -2.4115   -0.1241 N   0  0  0  0  0  0  0  0  0  0  0  0
    2.8480    0.8120   -0.3793 H   0  0  0  0  0  0  0  0  0  0  0  0
    2.6855    0.9132    1.4179 H   0  0  0  0  0  0  0  0  0  0  0  0
    3.6632   -0.3547    0.6698 H   0  0  0  0  0  0  0  0  0  0  0  0
    0.9023    1.9934    0.4319 H   0  0  0  0  0  0  0  0  0  0  0  0
   -1.0386   -3.0442    0.0642 H   0  0  0  0  0  0  0  0  0  0  0  0
    0.5831   -2.6279    0.3953 H   0  0  0  0  0  0  0  0  0  0  0  0
  1  2  1  0
  2  3  1  0
  3  4  2  0
  4  5  1  0
  5  6  1  0
  5  7  2  0
  7  8  1  0
  7  9  1  0
  9 10  1  0
  9 11  2  0
 11 12  1  0
 11  3  1  0
  1 13  1  0
  1 14  1  0
  1 15  1  0
  4 16  1  0
 12 17  1  0
 12 18  1  0
M  END
