
     RDKit          3D

 22 23  0  0  0  0  0  0  0  0999 V2000
    3.1356    0.4666   -2.8042 F   0  0  0  0  0  0  0  0  0  0  0  0
    2.6564    0.2083   -1.5783 C   0  0  0  0  0  0  0  0  0  0  0  0
    1.2779    0.2403   -1.3689 C   0  0  0  0  0  0  0  0  0  0  0  0
    0.4691    0.5372   -2.3980 F   0  0  0  0  0  0  0  0  0  0  0  0
    0.7243   -0.0174   -0.1086 C   0  0  0  0  0  0  0  0  0  0  0  0
   -0.7243    0.0174    0.1086 C   0  0  0  0  0  0  0  0  0  0  0  0
   -1.5645   -0.9664   -0.4274 C   0  0  0  0  0  0  0  0  0  0  0  0
   -1.0346   -1.9693   -1.1448 F   0  0  0  0  0  0  0  0  0  0  0  0
   -2.9438   -0.9360   -0.2220 C   0  0  0  0  0  0  0  0  0  0  0  0
   -3.7035   -1.9049   -0.7540 F   0  0  0  0  0  0  0  0  0  0  0  0
   -3.5195    0.0846    0.5275 C   0  0  0  0  0  0  0  0  0  0  0  0
   -5.3885    0.1295    0.8077 Br  0  0  0  0  0  0  0  0  0  0  0  0
   -2.7021    1.0717    1.0683 C   0  0  0  0  0  0  0  0  0  0  0  0
   -3.2262    2.0715    1.7927 F   0  0  0  0  0  0  0  0  0  0  0  0
   -1.3234    1.0358    0.8603 C   0  0  0  0  0  0  0  0  0  0  0  0
   -0.5600    2.0076    1.3838 F   0  0  0  0  0  0  0  0  0  0  0  0
    1.6101   -0.3097    0.9360 C   0  0  0  0  0  0  0  0  0  0  0  0
    1.1254   -0.5756    2.1589 F   0  0  0  0  0  0  0  0  0  0  0  0
    2.9895   -0.3440    0.7321 C   0  0  0  0  0  0  0  0  0  0  0  0
    3.7941   -0.6332    1.7655 F   0  0  0  0  0  0  0  0  0  0  0  0
    3.5195   -0.0846   -0.5275 C   0  0  0  0  0  0  0  0  0  0  0  0
    5.3885   -0.1295   -0.8077 Br  0  0  0  0  0  0  0  0  0  0  0  0
  1  2  1  0
  2  3  2  0
  3  4  1  0
  3  5  1  0
  5  6  1  0
  6  7  2  0
  7  8  1  0
  7  9  1  0
  9 10  1  0
  9 11  2  0
 11 12  1  0
 11 13  1  0
 13 14  1  0
 13 15  2  0
 15 16  1  0
  5 17  2  0
 17 18  1  0
 17 19  1  0
 19 20  1  0
 19 21  2  0
 21 22  1  0
 21  2  1  0
 15  6  1  0
M  END
