
     RDKit          3D

 26 27  0  0  0  0  0  0  0  0999 V2000
   -6.3406   -0.9679   -1.1254 Br  0  0  0  0  0  0  0  0  0  0  0  0
   -4.5316   -0.7877   -0.6083 C   0  0  0  0  0  0  0  0  0  0  0  0
   -4.1932   -0.8030    0.7425 C   0  0  0  0  0  0  0  0  0  0  0  0
   -2.8544   -0.6709    1.1230 C   0  0  0  0  0  0  0  0  0  0  0  0
   -1.8499   -0.5111    0.1587 C   0  0  0  0  0  0  0  0  0  0  0  0
   -0.4526   -0.4045    0.6014 C   0  0  0  0  0  0  0  0  0  0  0  0
    0.4526    0.4043    0.0267 C   0  0  0  0  0  0  0  0  0  0  0  0
    1.8499    0.5110    0.4693 C   0  0  0  0  0  0  0  0  0  0  0  0
    2.2067    0.5131    1.8249 C   0  0  0  0  0  0  0  0  0  0  0  0
    3.5447    0.6460    2.2086 C   0  0  0  0  0  0  0  0  0  0  0  0
    4.5316    0.7878    1.2363 C   0  0  0  0  0  0  0  0  0  0  0  0
    6.3406    0.9681    1.7535 Br  0  0  0  0  0  0  0  0  0  0  0  0
    4.1931    0.8036   -0.1145 C   0  0  0  0  0  0  0  0  0  0  0  0
    2.8544    0.6713   -0.4949 C   0  0  0  0  0  0  0  0  0  0  0  0
   -2.2066   -0.5136   -1.1968 C   0  0  0  0  0  0  0  0  0  0  0  0
   -3.5446   -0.6464   -1.5806 C   0  0  0  0  0  0  0  0  0  0  0  0
   -4.9583   -0.9179    1.5056 H   0  0  0  0  0  0  0  0  0  0  0  0
   -2.6044   -0.6848    2.1817 H   0  0  0  0  0  0  0  0  0  0  0  0
   -0.1833   -1.0293    1.4497 H   0  0  0  0  0  0  0  0  0  0  0  0
    0.1833    1.0291   -0.8217 H   0  0  0  0  0  0  0  0  0  0  0  0
    1.4472    0.4235    2.5979 H   0  0  0  0  0  0  0  0  0  0  0  0
    3.8018    0.6429    3.2644 H   0  0  0  0  0  0  0  0  0  0  0  0
    4.9582    0.9188   -0.8775 H   0  0  0  0  0  0  0  0  0  0  0  0
    2.6043    0.6855   -1.5536 H   0  0  0  0  0  0  0  0  0  0  0  0
   -1.4471   -0.4245   -1.9699 H   0  0  0  0  0  0  0  0  0  0  0  0
   -3.8017   -0.6437   -2.6364 H   0  0  0  0  0  0  0  0  0  0  0  0
  1  2  1  0
  2  3  2  0
  3  4  1  0
  4  5  2  0
  5  6  1  0
  6  7  2  0
  7  8  1  0
  8  9  2  0
  9 10  1  0
 10 11  2  0
 11 12  1  0
 11 13  1  0
 13 14  2  0
  5 15  1  0
 15 16  2  0
 16  2  1  0
 14  8  1  0
  3 17  1  0
  4 18  1  0
  6 19  1  0
  7 20  1  0
  9 21  1  0
 10 22  1  0
 13 23  1  0
 14 24  1  0
 15 25  1  0
 16 26  1  0
M  END
