
     RDKit          3D

 22 23  0  0  0  0  0  0  0  0999 V2000
   -3.8079    1.8098   -0.3704 F   0  0  0  0  0  0  0  0  0  0  0  0
   -2.9973    0.7674   -0.1351 C   0  0  0  0  0  0  0  0  0  0  0  0
   -1.6167    0.9547   -0.1987 C   0  0  0  0  0  0  0  0  0  0  0  0
   -1.1374    2.1710   -0.5020 F   0  0  0  0  0  0  0  0  0  0  0  0
   -0.7249   -0.0998    0.0340 C   0  0  0  0  0  0  0  0  0  0  0  0
    0.7249    0.0998   -0.0340 C   0  0  0  0  0  0  0  0  0  0  0  0
    1.4032    0.8467    0.9372 C   0  0  0  0  0  0  0  0  0  0  0  0
    0.7164    1.3818    1.9586 F   0  0  0  0  0  0  0  0  0  0  0  0
    2.7834    1.0381    0.8753 C   0  0  0  0  0  0  0  0  0  0  0  0
    3.3852    1.7585    1.8333 F   0  0  0  0  0  0  0  0  0  0  0  0
    3.5227    0.4850   -0.1651 C   0  0  0  0  0  0  0  0  0  0  0  0
    5.3935    0.7426   -0.2528 Br  0  0  0  0  0  0  0  0  0  0  0  0
    2.8677   -0.2599   -1.1402 C   0  0  0  0  0  0  0  0  0  0  0  0
    3.5508   -0.8035   -2.1584 F   0  0  0  0  0  0  0  0  0  0  0  0
    1.4874   -0.4487   -1.0727 C   0  0  0  0  0  0  0  0  0  0  0  0
    0.8796   -1.1620   -2.0335 F   0  0  0  0  0  0  0  0  0  0  0  0
   -1.2740   -1.3527    0.3342 C   0  0  0  0  0  0  0  0  0  0  0  0
   -0.4587   -2.3908    0.5769 F   0  0  0  0  0  0  0  0  0  0  0  0
   -2.6538   -1.5455    0.4000 C   0  0  0  0  0  0  0  0  0  0  0  0
   -3.1281   -2.7648    0.6955 F   0  0  0  0  0  0  0  0  0  0  0  0
   -3.5227   -0.4850    0.1651 C   0  0  0  0  0  0  0  0  0  0  0  0
   -5.3935   -0.7426    0.2528 Br  0  0  0  0  0  0  0  0  0  0  0  0
  1  2  1  0
  2  3  2  0
  3  4  1  0
  3  5  1  0
  5  6  1  0
  6  7  2  0
  7  8  1  0
  7  9  1  0
  9 10  1  0
  9 11  2  0
 11 12  1  0
 11 13  1  0
 13 14  1  0
 13 15  2  0
 15 16  1  0
  5 17  2  0
 17 18  1  0
 17 19  1  0
 19 20  1  0
 19 21  2  0
 21 22  1  0
 21  2  1  0
 15  6  1  0
M  END
