
     RDKit          3D

 24 25  0  0  0  0  0  0  0  0999 V2000
    0.0838   -2.4697    0.5271 O   0  0  0  0  0  0  0  0  0  0  0  0
    0.0434   -1.2790    0.2292 C   0  0  0  0  0  0  0  0  0  0  0  0
   -1.2751   -0.6322    0.0108 C   0  0  0  0  0  0  0  0  0  0  0  0
   -2.3651   -1.0665    0.7757 C   0  0  0  0  0  0  0  0  0  0  0  0
   -3.6251   -0.4927    0.5909 C   0  0  0  0  0  0  0  0  0  0  0  0
   -3.7950    0.5050   -0.3678 C   0  0  0  0  0  0  0  0  0  0  0  0
   -5.4994    1.2822   -0.6203 Br  0  0  0  0  0  0  0  0  0  0  0  0
   -2.7197    0.9290   -1.1489 C   0  0  0  0  0  0  0  0  0  0  0  0
   -1.4580    0.3560   -0.9651 C   0  0  0  0  0  0  0  0  0  0  0  0
    1.3143   -0.5229    0.0964 C   0  0  0  0  0  0  0  0  0  0  0  0
    1.4183    0.8175    0.4896 C   0  0  0  0  0  0  0  0  0  0  0  0
    2.6377    1.4888    0.3620 C   0  0  0  0  0  0  0  0  0  0  0  0
    3.7502    0.8167   -0.1448 C   0  0  0  0  0  0  0  0  0  0  0  0
    5.3973    1.7281   -0.3149 Br  0  0  0  0  0  0  0  0  0  0  0  0
    3.6595   -0.5233   -0.5185 C   0  0  0  0  0  0  0  0  0  0  0  0
    2.4418   -1.1956   -0.3915 C   0  0  0  0  0  0  0  0  0  0  0  0
   -2.2343   -1.8543    1.5157 H   0  0  0  0  0  0  0  0  0  0  0  0
   -4.4631   -0.8350    1.1929 H   0  0  0  0  0  0  0  0  0  0  0  0
   -2.8559    1.6956   -1.9079 H   0  0  0  0  0  0  0  0  0  0  0  0
   -0.6373    0.6762   -1.6020 H   0  0  0  0  0  0  0  0  0  0  0  0
    0.5687    1.3466    0.9140 H   0  0  0  0  0  0  0  0  0  0  0  0
    2.7126    2.5292    0.6689 H   0  0  0  0  0  0  0  0  0  0  0  0
    4.5271   -1.0543   -0.9021 H   0  0  0  0  0  0  0  0  0  0  0  0
    2.3733   -2.2454   -0.6717 H   0  0  0  0  0  0  0  0  0  0  0  0
  1  2  2  0
  2  3  1  0
  3  4  2  0
  4  5  1  0
  5  6  2  0
  6  7  1  0
  6  8  1  0
  8  9  2  0
  2 10  1  0
 10 11  2  0
 11 12  1  0
 12 13  2  0
 13 14  1  0
 13 15  1  0
 15 16  2  0
  9  3  1  0
 16 10  1  0
  4 17  1  0
  5 18  1  0
  8 19  1  0
  9 20  1  0
 11 21  1  0
 12 22  1  0
 15 23  1  0
 16 24  1  0
M  END
