
     RDKit          3D

 24 25  0  0  0  0  0  0  0  0999 V2000
   -0.3740    1.5930    2.3310 O   0  0  0  0  0  0  0  0  0  0  0  0
   -1.0013    1.7190    1.2720 N   0  0  0  0  0  4  0  0  0  0  0  0
   -1.2700    2.7859    0.7042 O   0  0  0  0  0  1  0  0  0  0  0  0
   -1.5070    0.5098    0.6577 C   0  0  0  0  0  0  0  0  0  0  0  0
   -2.8710    0.2351    0.8190 C   0  0  0  0  0  0  0  0  0  0  0  0
   -3.3827   -0.9297    0.2596 C   0  0  0  0  0  0  0  0  0  0  0  0
   -5.2169   -1.3378    0.4572 Br  0  0  0  0  0  0  0  0  0  0  0  0
   -2.5523   -1.8011   -0.4453 C   0  0  0  0  0  0  0  0  0  0  0  0
   -1.1917   -1.5057   -0.5988 C   0  0  0  0  0  0  0  0  0  0  0  0
   -0.6357   -0.3364   -0.0515 C   0  0  0  0  0  0  0  0  0  0  0  0
    0.7912   -0.0507   -0.2509 C   0  0  0  0  0  0  0  0  0  0  0  0
    1.2070    0.9587   -1.1346 C   0  0  0  0  0  0  0  0  0  0  0  0
    2.5653    1.2281   -1.3244 C   0  0  0  0  0  0  0  0  0  0  0  0
    3.5200    0.4872   -0.6326 C   0  0  0  0  0  0  0  0  0  0  0  0
    5.3570    0.8497   -0.8890 Br  0  0  0  0  0  0  0  0  0  0  0  0
    3.1296   -0.5198    0.2464 C   0  0  0  0  0  0  0  0  0  0  0  0
    1.7707   -0.7873    0.4346 C   0  0  0  0  0  0  0  0  0  0  0  0
   -3.5128    0.9166    1.3721 H   0  0  0  0  0  0  0  0  0  0  0  0
   -2.9523   -2.7130   -0.8840 H   0  0  0  0  0  0  0  0  0  0  0  0
   -0.5640   -2.1964   -1.1618 H   0  0  0  0  0  0  0  0  0  0  0  0
    0.4746    1.5471   -1.6855 H   0  0  0  0  0  0  0  0  0  0  0  0
    2.8646    2.0168   -2.0100 H   0  0  0  0  0  0  0  0  0  0  0  0
    3.8706   -1.0977    0.7924 H   0  0  0  0  0  0  0  0  0  0  0  0
    1.4808   -1.5713    1.1322 H   0  0  0  0  0  0  0  0  0  0  0  0
  1  2  2  0
  2  3  1  0
  2  4  1  0
  4  5  2  0
  5  6  1  0
  6  7  1  0
  6  8  2  0
  8  9  1  0
  9 10  2  0
 10 11  1  0
 11 12  2  0
 12 13  1  0
 13 14  2  0
 14 15  1  0
 14 16  1  0
 16 17  2  0
 10  4  1  0
 17 11  1  0
  5 18  1  0
  8 19  1  0
  9 20  1  0
 12 21  1  0
 13 22  1  0
 16 23  1  0
 17 24  1  0
M  CHG  2   2   1   3  -1
M  END
