
     RDKit          3D

 34 36  0  0  0  0  0  0  0  0999 V2000
    3.9120   -1.7431   -0.1200 C   0  0  0  0  0  0  0  0  0  0  0  0
    3.6566   -0.6597    0.7171 C   0  0  0  0  0  0  0  0  0  0  0  0
    2.3808   -0.0907    0.7560 C   0  0  0  0  0  0  0  0  0  0  0  0
    1.3384   -0.5963   -0.0410 C   0  0  0  0  0  0  0  0  0  0  0  0
    1.6177   -1.6909   -0.8786 C   0  0  0  0  0  0  0  0  0  0  0  0
    2.8938   -2.2590   -0.9180 C   0  0  0  0  0  0  0  0  0  0  0  0
    0.0198   -0.0088   -0.0005 N   0  0  0  0  0  0  0  0  0  0  0  0
   -0.1290    1.4258    0.0614 C   0  0  0  0  0  0  0  0  0  0  0  0
   -1.1076    2.0174    0.8812 C   0  0  0  0  0  0  0  0  0  0  0  0
   -1.2527    3.4067    0.9418 C   0  0  0  0  0  0  0  0  0  0  0  0
   -0.4191    4.2216    0.1807 C   0  0  0  0  0  0  0  0  0  0  0  0
    0.5574    3.6620   -0.6387 C   0  0  0  0  0  0  0  0  0  0  0  0
    0.7007    2.2724   -0.6964 C   0  0  0  0  0  0  0  0  0  0  0  0
   -0.6140    6.0998    0.2608 Br  0  0  0  0  0  0  0  0  0  0  0  0
   -1.1485   -0.8565   -0.0222 C   0  0  0  0  0  0  0  0  0  0  0  0
   -2.2829   -0.5067   -0.7773 C   0  0  0  0  0  0  0  0  0  0  0  0
   -3.4150   -1.3270   -0.7989 C   0  0  0  0  0  0  0  0  0  0  0  0
   -3.4252   -2.5087   -0.0629 C   0  0  0  0  0  0  0  0  0  0  0  0
   -2.3160   -2.8783    0.6928 C   0  0  0  0  0  0  0  0  0  0  0  0
   -1.1850   -2.0565    0.7115 C   0  0  0  0  0  0  0  0  0  0  0  0
   -4.9547   -3.6186   -0.0902 Br  0  0  0  0  0  0  0  0  0  0  0  0
    4.9045   -2.1853   -0.1505 H   0  0  0  0  0  0  0  0  0  0  0  0
    4.4480   -0.2575    1.3442 H   0  0  0  0  0  0  0  0  0  0  0  0
    2.1995    0.7428    1.4305 H   0  0  0  0  0  0  0  0  0  0  0  0
    0.8429   -2.0983   -1.5237 H   0  0  0  0  0  0  0  0  0  0  0  0
    3.0911   -3.1017   -1.5755 H   0  0  0  0  0  0  0  0  0  0  0  0
   -1.7544    1.3960    1.4965 H   0  0  0  0  0  0  0  0  0  0  0  0
   -2.0137    3.8372    1.5870 H   0  0  0  0  0  0  0  0  0  0  0  0
    1.2091    4.2920   -1.2381 H   0  0  0  0  0  0  0  0  0  0  0  0
    1.4571    1.8504   -1.3546 H   0  0  0  0  0  0  0  0  0  0  0  0
   -2.2843    0.4035   -1.3729 H   0  0  0  0  0  0  0  0  0  0  0  0
   -4.2757   -1.0350   -1.3945 H   0  0  0  0  0  0  0  0  0  0  0  0
   -2.3185   -3.7975    1.2724 H   0  0  0  0  0  0  0  0  0  0  0  0
   -0.3330   -2.3511    1.3206 H   0  0  0  0  0  0  0  0  0  0  0  0
  1  2  2  0
  2  3  1  0
  3  4  2  0
  4  5  1  0
  5  6  2  0
  4  7  1  0
  7  8  1  0
  8  9  2  0
  9 10  1  0
 10 11  2  0
 11 12  1  0
 12 13  2  0
 11 14  1  0
  7 15  1  0
 15 16  2  0
 16 17  1  0
 17 18  2  0
 18 19  1  0
 19 20  2  0
 18 21  1  0
  6  1  1  0
 13  8  1  0
 20 15  1  0
  1 22  1  0
  2 23  1  0
  3 24  1  0
  5 25  1  0
  6 26  1  0
  9 27  1  0
 10 28  1  0
 12 29  1  0
 13 30  1  0
 16 31  1  0
 17 32  1  0
 19 33  1  0
 20 34  1  0
M  END
