
     RDKit          3D

 46 48  0  0  0  0  0  0  0  0999 V2000
   -4.6141    0.7883    1.4043 C   0  0  0  0  0  0  0  0  0  0  0  0
   -4.1480    0.0165    0.1508 C   0  0  0  0  0  0  0  0  0  0  0  0
   -4.8324    0.6721   -1.0700 C   0  0  0  0  0  0  0  0  0  0  0  0
   -4.6567   -1.4390    0.2321 C   0  0  0  0  0  0  0  0  0  0  0  0
   -2.6110    0.0243    0.0806 C   0  0  0  0  0  0  0  0  0  0  0  0
   -1.9029    0.5799   -0.9956 C   0  0  0  0  0  0  0  0  0  0  0  0
   -0.5014    0.5716   -1.0289 C   0  0  0  0  0  0  0  0  0  0  0  0
    0.2484    0.0062    0.0119 C   0  0  0  0  0  0  0  0  0  0  0  0
   -0.4528   -0.5509    1.0892 C   0  0  0  0  0  0  0  0  0  0  0  0
   -1.8527   -0.5409    1.1222 C   0  0  0  0  0  0  0  0  0  0  0  0
    1.6906   -0.0018   -0.0253 N   0  0  0  0  0  0  0  0  0  0  0  0
    2.4064    1.1583   -0.5006 C   0  0  0  0  0  0  0  0  0  0  0  0
    1.9880    2.4570   -0.1576 C   0  0  0  0  0  0  0  0  0  0  0  0
    2.6804    3.5818   -0.6160 C   0  0  0  0  0  0  0  0  0  0  0  0
    3.8011    3.4196   -1.4258 C   0  0  0  0  0  0  0  0  0  0  0  0
    4.2359    2.1456   -1.7811 C   0  0  0  0  0  0  0  0  0  0  0  0
    3.5419    1.0227   -1.3202 C   0  0  0  0  0  0  0  0  0  0  0  0
    4.7382    4.9386   -2.0474 Br  0  0  0  0  0  0  0  0  0  0  0  0
    2.4170   -1.1698    0.4132 C   0  0  0  0  0  0  0  0  0  0  0  0
    3.5946   -1.0470    1.1732 C   0  0  0  0  0  0  0  0  0  0  0  0
    4.2989   -2.1776    1.5984 C   0  0  0  0  0  0  0  0  0  0  0  0
    3.8323   -3.4466    1.2666 C   0  0  0  0  0  0  0  0  0  0  0  0
    2.6697   -3.5963    0.5155 C   0  0  0  0  0  0  0  0  0  0  0  0
    1.9671   -2.4638    0.0927 C   0  0  0  0  0  0  0  0  0  0  0  0
    4.7831   -4.9761    1.8398 Br  0  0  0  0  0  0  0  0  0  0  0  0
   -4.2631    0.3230    2.3319 H   0  0  0  0  0  0  0  0  0  0  0  0
   -4.2431    1.8200    1.3928 H   0  0  0  0  0  0  0  0  0  0  0  0
   -5.7083    0.8278    1.4600 H   0  0  0  0  0  0  0  0  0  0  0  0
   -4.5474    1.7254   -1.1750 H   0  0  0  0  0  0  0  0  0  0  0  0
   -4.5771    0.1543   -2.0019 H   0  0  0  0  0  0  0  0  0  0  0  0
   -5.9245    0.6422   -0.9739 H   0  0  0  0  0  0  0  0  0  0  0  0
   -4.3164   -2.0245   -0.6303 H   0  0  0  0  0  0  0  0  0  0  0  0
   -5.7523   -1.4745    0.2480 H   0  0  0  0  0  0  0  0  0  0  0  0
   -4.3069   -1.9507    1.1354 H   0  0  0  0  0  0  0  0  0  0  0  0
   -2.4158    1.0315   -1.8403 H   0  0  0  0  0  0  0  0  0  0  0  0
    0.0007    0.9986   -1.8943 H   0  0  0  0  0  0  0  0  0  0  0  0
    0.0860   -0.9842    1.9286 H   0  0  0  0  0  0  0  0  0  0  0  0
   -2.3431   -0.9838    1.9866 H   0  0  0  0  0  0  0  0  0  0  0  0
    1.1243    2.6004    0.4882 H   0  0  0  0  0  0  0  0  0  0  0  0
    2.3376    4.5731   -0.3320 H   0  0  0  0  0  0  0  0  0  0  0  0
    5.1071    2.0121   -2.4167 H   0  0  0  0  0  0  0  0  0  0  0  0
    3.8837    0.0353   -1.6225 H   0  0  0  0  0  0  0  0  0  0  0  0
    3.9624   -0.0635    1.4572 H   0  0  0  0  0  0  0  0  0  0  0  0
    5.2030   -2.0539    2.1883 H   0  0  0  0  0  0  0  0  0  0  0  0
    2.3017   -4.5837    0.2500 H   0  0  0  0  0  0  0  0  0  0  0  0
    1.0699   -2.5975   -0.5078 H   0  0  0  0  0  0  0  0  0  0  0  0
  1  2  1  0
  2  3  1  0
  2  4  1  0
  2  5  1  0
  5  6  2  0
  6  7  1  0
  7  8  2  0
  8  9  1  0
  9 10  2  0
  8 11  1  0
 11 12  1  0
 12 13  2  0
 13 14  1  0
 14 15  2  0
 15 16  1  0
 16 17  2  0
 15 18  1  0
 11 19  1  0
 19 20  2  0
 20 21  1  0
 21 22  2  0
 22 23  1  0
 23 24  2  0
 22 25  1  0
 10  5  1  0
 17 12  1  0
 24 19  1  0
  1 26  1  0
  1 27  1  0
  1 28  1  0
  3 29  1  0
  3 30  1  0
  3 31  1  0
  4 32  1  0
  4 33  1  0
  4 34  1  0
  6 35  1  0
  7 36  1  0
  9 37  1  0
 10 38  1  0
 13 39  1  0
 14 40  1  0
 16 41  1  0
 17 42  1  0
 20 43  1  0
 21 44  1  0
 23 45  1  0
 24 46  1  0
M  END
