
     RDKit          3D

 32 34  0  0  0  0  0  0  0  0999 V2000
   -0.5490    3.7931    0.0114 C   0  0  0  0  0  0  0  0  0  0  0  0
    0.8313    3.7381    0.1555 C   0  0  0  0  0  0  0  0  0  0  0  0
    1.4754    2.5016    0.2011 C   0  0  0  0  0  0  0  0  0  0  0  0
    0.7545    1.2938    0.1043 C   0  0  0  0  0  0  0  0  0  0  0  0
   -0.6554    1.3499   -0.0457 C   0  0  0  0  0  0  0  0  0  0  0  0
   -1.2837    2.6114   -0.0878 C   0  0  0  0  0  0  0  0  0  0  0  0
   -1.4931    0.1429   -0.1719 C   0  0  0  0  0  0  0  0  0  0  0  0
   -1.4136   -0.6776   -1.3092 C   0  0  0  0  0  0  0  0  0  0  0  0
   -2.2052   -1.8235   -1.4247 C   0  0  0  0  0  0  0  0  0  0  0  0
   -3.0901   -2.1563   -0.4025 C   0  0  0  0  0  0  0  0  0  0  0  0
   -3.1926   -1.3542    0.7312 C   0  0  0  0  0  0  0  0  0  0  0  0
   -2.3984   -0.2096    0.8433 C   0  0  0  0  0  0  0  0  0  0  0  0
   -4.1604   -3.7067   -0.5550 Br  0  0  0  0  0  0  0  0  0  0  0  0
    1.4993    0.0230    0.1756 C   0  0  0  0  0  0  0  0  0  0  0  0
    2.3769   -0.3512   -0.8560 C   0  0  0  0  0  0  0  0  0  0  0  0
    3.0830   -1.5559   -0.7960 C   0  0  0  0  0  0  0  0  0  0  0  0
    2.9194   -2.3971    0.3016 C   0  0  0  0  0  0  0  0  0  0  0  0
    2.0607   -2.0443    1.3393 C   0  0  0  0  0  0  0  0  0  0  0  0
    1.3573   -0.8383    1.2759 C   0  0  0  0  0  0  0  0  0  0  0  0
    3.8705   -4.0284    0.3836 Br  0  0  0  0  0  0  0  0  0  0  0  0
   -1.0565    4.7535   -0.0264 H   0  0  0  0  0  0  0  0  0  0  0  0
    1.4091    4.6553    0.2350 H   0  0  0  0  0  0  0  0  0  0  0  0
    2.5571    2.4784    0.3248 H   0  0  0  0  0  0  0  0  0  0  0  0
   -2.3639    2.6747   -0.2107 H   0  0  0  0  0  0  0  0  0  0  0  0
   -0.7261   -0.4264   -2.1145 H   0  0  0  0  0  0  0  0  0  0  0  0
   -2.1205   -2.4452   -2.3118 H   0  0  0  0  0  0  0  0  0  0  0  0
   -3.8815   -1.6091    1.5318 H   0  0  0  0  0  0  0  0  0  0  0  0
   -2.4811    0.4067    1.7365 H   0  0  0  0  0  0  0  0  0  0  0  0
    2.5066    0.2958   -1.7215 H   0  0  0  0  0  0  0  0  0  0  0  0
    3.7519   -1.8262   -1.6084 H   0  0  0  0  0  0  0  0  0  0  0  0
    1.9286   -2.6962    2.1984 H   0  0  0  0  0  0  0  0  0  0  0  0
    0.6895   -0.5720    2.0928 H   0  0  0  0  0  0  0  0  0  0  0  0
  1  2  2  0
  2  3  1  0
  3  4  2  0
  4  5  1  0
  5  6  2  0
  5  7  1  0
  7  8  2  0
  8  9  1  0
  9 10  2  0
 10 11  1  0
 11 12  2  0
 10 13  1  0
  4 14  1  0
 14 15  2  0
 15 16  1  0
 16 17  2  0
 17 18  1  0
 18 19  2  0
 17 20  1  0
  6  1  1  0
 12  7  1  0
 19 14  1  0
  1 21  1  0
  2 22  1  0
  3 23  1  0
  6 24  1  0
  8 25  1  0
  9 26  1  0
 11 27  1  0
 12 28  1  0
 15 29  1  0
 16 30  1  0
 18 31  1  0
 19 32  1  0
M  END
