
     RDKit          3D

 44 47  0  0  0  0  0  0  0  0999 V2000
    6.8224    0.7706   -0.2266 C   0  0  0  0  0  0  0  0  0  0  0  0
    6.2690   -0.4220    0.2319 C   0  0  0  0  0  0  0  0  0  0  0  0
    4.8808   -0.5782    0.2753 C   0  0  0  0  0  0  0  0  0  0  0  0
    4.0215    0.4542   -0.1372 C   0  0  0  0  0  0  0  0  0  0  0  0
    4.6014    1.6491   -0.5957 C   0  0  0  0  0  0  0  0  0  0  0  0
    5.9894    1.8066   -0.6408 C   0  0  0  0  0  0  0  0  0  0  0  0
    2.5593    0.2890   -0.0906 C   0  0  0  0  0  0  0  0  0  0  0  0
    1.9344   -0.8083   -0.7015 C   0  0  0  0  0  0  0  0  0  0  0  0
    0.5438   -0.9665   -0.6575 C   0  0  0  0  0  0  0  0  0  0  0  0
   -0.2702   -0.0306   -0.0004 C   0  0  0  0  0  0  0  0  0  0  0  0
    0.3544    1.0678    0.6108 C   0  0  0  0  0  0  0  0  0  0  0  0
    1.7452    1.2238    0.5662 C   0  0  0  0  0  0  0  0  0  0  0  0
   -1.7036   -0.1925    0.0453 N   0  0  0  0  0  0  0  0  0  0  0  0
   -2.2752   -1.5003    0.2615 C   0  0  0  0  0  0  0  0  0  0  0  0
   -1.7083   -2.3930    1.1895 C   0  0  0  0  0  0  0  0  0  0  0  0
   -2.2611   -3.6597    1.4010 C   0  0  0  0  0  0  0  0  0  0  0  0
   -3.3891   -4.0489    0.6838 C   0  0  0  0  0  0  0  0  0  0  0  0
   -3.9693   -3.1852   -0.2412 C   0  0  0  0  0  0  0  0  0  0  0  0
   -3.4149   -1.9186   -0.4496 C   0  0  0  0  0  0  0  0  0  0  0  0
   -4.1374   -5.7610    0.9675 Br  0  0  0  0  0  0  0  0  0  0  0  0
   -2.5647    0.9536   -0.1252 C   0  0  0  0  0  0  0  0  0  0  0  0
   -2.2705    1.9435   -1.0807 C   0  0  0  0  0  0  0  0  0  0  0  0
   -3.1037    3.0538   -1.2478 C   0  0  0  0  0  0  0  0  0  0  0  0
   -4.2425    3.1871   -0.4582 C   0  0  0  0  0  0  0  0  0  0  0  0
   -4.5563    2.2224    0.4952 C   0  0  0  0  0  0  0  0  0  0  0  0
   -3.7217    1.1126    0.6593 C   0  0  0  0  0  0  0  0  0  0  0  0
   -5.3697    4.6875   -0.6819 Br  0  0  0  0  0  0  0  0  0  0  0  0
    7.9018    0.8925   -0.2610 H   0  0  0  0  0  0  0  0  0  0  0  0
    6.9159   -1.2318    0.5590 H   0  0  0  0  0  0  0  0  0  0  0  0
    4.4699   -1.5144    0.6480 H   0  0  0  0  0  0  0  0  0  0  0  0
    3.9696    2.4676   -0.9350 H   0  0  0  0  0  0  0  0  0  0  0  0
    6.4177    2.7378   -1.0022 H   0  0  0  0  0  0  0  0  0  0  0  0
    2.5282   -1.5478   -1.2354 H   0  0  0  0  0  0  0  0  0  0  0  0
    0.0992   -1.8206   -1.1630 H   0  0  0  0  0  0  0  0  0  0  0  0
   -0.2366    1.8050    1.1493 H   0  0  0  0  0  0  0  0  0  0  0  0
    2.1917    2.0808    1.0670 H   0  0  0  0  0  0  0  0  0  0  0  0
   -0.8374   -2.0977    1.7707 H   0  0  0  0  0  0  0  0  0  0  0  0
   -1.8055   -4.3274    2.1272 H   0  0  0  0  0  0  0  0  0  0  0  0
   -4.8471   -3.4846   -0.8075 H   0  0  0  0  0  0  0  0  0  0  0  0
   -3.8694   -1.2634   -1.1895 H   0  0  0  0  0  0  0  0  0  0  0  0
   -1.3941    1.8455   -1.7177 H   0  0  0  0  0  0  0  0  0  0  0  0
   -2.8550    3.8011   -1.9965 H   0  0  0  0  0  0  0  0  0  0  0  0
   -5.4412    2.3227    1.1180 H   0  0  0  0  0  0  0  0  0  0  0  0
   -3.9713    0.3779    1.4216 H   0  0  0  0  0  0  0  0  0  0  0  0
  1  2  2  0
  2  3  1  0
  3  4  2  0
  4  5  1  0
  5  6  2  0
  4  7  1  0
  7  8  2  0
  8  9  1  0
  9 10  2  0
 10 11  1  0
 11 12  2  0
 10 13  1  0
 13 14  1  0
 14 15  2  0
 15 16  1  0
 16 17  2  0
 17 18  1  0
 18 19  2  0
 17 20  1  0
 13 21  1  0
 21 22  2  0
 22 23  1  0
 23 24  2  0
 24 25  1  0
 25 26  2  0
 24 27  1  0
  6  1  1  0
 12  7  1  0
 19 14  1  0
 26 21  1  0
  1 28  1  0
  2 29  1  0
  3 30  1  0
  5 31  1  0
  6 32  1  0
  8 33  1  0
  9 34  1  0
 11 35  1  0
 12 36  1  0
 15 37  1  0
 16 38  1  0
 18 39  1  0
 19 40  1  0
 22 41  1  0
 23 42  1  0
 25 43  1  0
 26 44  1  0
M  END
