
     RDKit          3D

 26 27  0  0  0  0  0  0  0  0999 V2000
   -4.9014    0.6671    0.4504 N   0  0  0  0  0  0  0  0  0  0  0  0
   -3.5363    0.3823    0.3325 C   0  0  0  0  0  0  0  0  0  0  0  0
   -2.9267    0.3758   -0.9218 C   0  0  0  0  0  0  0  0  0  0  0  0
   -1.5433    0.2094   -1.0434 C   0  0  0  0  0  0  0  0  0  0  0  0
   -0.7251    0.0848    0.0917 C   0  0  0  0  0  0  0  0  0  0  0  0
    0.7251   -0.0883   -0.0882 C   0  0  0  0  0  0  0  0  0  0  0  0
    1.5365    1.0505   -0.2230 C   0  0  0  0  0  0  0  0  0  0  0  0
    2.9197    0.9353   -0.3962 C   0  0  0  0  0  0  0  0  0  0  0  0
    3.5360   -0.3157   -0.3994 C   0  0  0  0  0  0  0  0  0  0  0  0
    4.9001   -0.4279   -0.6908 N   0  0  0  0  0  0  0  0  0  0  0  0
    2.7334   -1.4556   -0.3314 C   0  0  0  0  0  0  0  0  0  0  0  0
    1.3468   -1.3471   -0.1578 C   0  0  0  0  0  0  0  0  0  0  0  0
    0.3537   -2.9669   -0.0404 Br  0  0  0  0  0  0  0  0  0  0  0  0
   -1.3405    0.1577    1.3534 C   0  0  0  0  0  0  0  0  0  0  0  0
   -0.3382    0.0540    2.9685 Br  0  0  0  0  0  0  0  0  0  0  0  0
   -2.7274    0.3245    1.4684 C   0  0  0  0  0  0  0  0  0  0  0  0
   -5.4517    0.3887   -0.3564 H   0  0  0  0  0  0  0  0  0  0  0  0
   -5.3154    0.3529    1.3229 H   0  0  0  0  0  0  0  0  0  0  0  0
   -3.5236    0.4969   -1.8221 H   0  0  0  0  0  0  0  0  0  0  0  0
   -1.1019    0.1838   -2.0384 H   0  0  0  0  0  0  0  0  0  0  0  0
    1.0900    2.0432   -0.2002 H   0  0  0  0  0  0  0  0  0  0  0  0
    3.5112    1.8382   -0.5251 H   0  0  0  0  0  0  0  0  0  0  0  0
    5.3204   -1.2965   -0.3743 H   0  0  0  0  0  0  0  0  0  0  0  0
    5.4476    0.3833   -0.4196 H   0  0  0  0  0  0  0  0  0  0  0  0
    3.1909   -2.4381   -0.4120 H   0  0  0  0  0  0  0  0  0  0  0  0
   -3.1801    0.4077    2.4529 H   0  0  0  0  0  0  0  0  0  0  0  0
  1  2  1  0
  2  3  2  0
  3  4  1  0
  4  5  2  0
  5  6  1  0
  6  7  2  0
  7  8  1  0
  8  9  2  0
  9 10  1  0
  9 11  1  0
 11 12  2  0
 12 13  1  0
  5 14  1  0
 14 15  1  0
 14 16  2  0
 16  2  1  0
 12  6  1  0
  1 17  1  0
  1 18  1  0
  3 19  1  0
  4 20  1  0
  7 21  1  0
  8 22  1  0
 10 23  1  0
 10 24  1  0
 11 25  1  0
 16 26  1  0
M  END
