
     RDKit          3D

 26 27  0  0  0  0  0  0  0  0999 V2000
    6.5330    1.0529    0.1543 Br  0  0  0  0  0  0  0  0  0  0  0  0
    4.6522    0.8737    0.1252 C   0  0  0  0  0  0  0  0  0  0  0  0
    4.0768   -0.3355   -0.2525 C   0  0  0  0  0  0  0  0  0  0  0  0
    2.6832   -0.4686   -0.2741 C   0  0  0  0  0  0  0  0  0  0  0  0
    1.8505    0.6027    0.0807 C   0  0  0  0  0  0  0  0  0  0  0  0
    0.3738    0.5339    0.0809 C   0  0  0  0  0  0  0  0  0  0  0  0
   -0.3738   -0.5338   -0.2493 C   0  0  0  0  0  0  0  0  0  0  0  0
   -1.8505   -0.6027   -0.2491 C   0  0  0  0  0  0  0  0  0  0  0  0
   -2.6832    0.4686    0.1058 C   0  0  0  0  0  0  0  0  0  0  0  0
   -4.0768    0.3354    0.0842 C   0  0  0  0  0  0  0  0  0  0  0  0
   -4.6522   -0.8737   -0.2936 C   0  0  0  0  0  0  0  0  0  0  0  0
   -6.5330   -1.0529   -0.3227 Br  0  0  0  0  0  0  0  0  0  0  0  0
   -3.8478   -1.9507   -0.6500 C   0  0  0  0  0  0  0  0  0  0  0  0
   -2.4558   -1.8133   -0.6270 C   0  0  0  0  0  0  0  0  0  0  0  0
    2.4558    1.8133    0.4585 C   0  0  0  0  0  0  0  0  0  0  0  0
    3.8478    1.9508    0.4815 C   0  0  0  0  0  0  0  0  0  0  0  0
    4.6987   -1.1819   -0.5322 H   0  0  0  0  0  0  0  0  0  0  0  0
    2.2726   -1.4279   -0.5744 H   0  0  0  0  0  0  0  0  0  0  0  0
   -0.1106    1.4576    0.3837 H   0  0  0  0  0  0  0  0  0  0  0  0
    0.1106   -1.4576   -0.5521 H   0  0  0  0  0  0  0  0  0  0  0  0
   -2.2726    1.4278    0.4062 H   0  0  0  0  0  0  0  0  0  0  0  0
   -4.6987    1.1818    0.3641 H   0  0  0  0  0  0  0  0  0  0  0  0
   -4.2879   -2.8990   -0.9465 H   0  0  0  0  0  0  0  0  0  0  0  0
   -1.8483   -2.6706   -0.9101 H   0  0  0  0  0  0  0  0  0  0  0  0
    1.8483    2.6707    0.7415 H   0  0  0  0  0  0  0  0  0  0  0  0
    4.2879    2.8991    0.7779 H   0  0  0  0  0  0  0  0  0  0  0  0
  1  2  1  0
  2  3  2  0
  3  4  1  0
  4  5  2  0
  5  6  1  0
  6  7  2  0
  7  8  1  0
  8  9  2  0
  9 10  1  0
 10 11  2  0
 11 12  1  0
 11 13  1  0
 13 14  2  0
  5 15  1  0
 15 16  2  0
 16  2  1  0
 14  8  1  0
  3 17  1  0
  4 18  1  0
  6 19  1  0
  7 20  1  0
  9 21  1  0
 10 22  1  0
 13 23  1  0
 14 24  1  0
 15 25  1  0
 16 26  1  0
M  END
