
     RDKit          3D

 24 25  0  0  0  0  0  0  0  0999 V2000
    0.0883   -2.5457    0.0160 O   0  0  0  0  0  0  0  0  0  0  0  0
    0.0457   -1.3184    0.0083 C   0  0  0  0  0  0  0  0  0  0  0  0
    1.3030   -0.5496    0.1896 C   0  0  0  0  0  0  0  0  0  0  0  0
    1.5332    0.6557   -0.4860 C   0  0  0  0  0  0  0  0  0  0  0  0
    2.7372    1.3407   -0.2988 C   0  0  0  0  0  0  0  0  0  0  0  0
    3.7104    0.8142    0.5507 C   0  0  0  0  0  0  0  0  0  0  0  0
    5.3373    1.7436    0.8002 Br  0  0  0  0  0  0  0  0  0  0  0  0
    3.4969   -0.3953    1.2101 C   0  0  0  0  0  0  0  0  0  0  0  0
    2.2945   -1.0813    1.0240 C   0  0  0  0  0  0  0  0  0  0  0  0
   -1.2617   -0.6410   -0.1821 C   0  0  0  0  0  0  0  0  0  0  0  0
   -1.5752    0.5539    0.4784 C   0  0  0  0  0  0  0  0  0  0  0  0
   -2.8236    1.1514    0.2832 C   0  0  0  0  0  0  0  0  0  0  0  0
   -3.7577    0.5481   -0.5592 C   0  0  0  0  0  0  0  0  0  0  0  0
   -5.4449    1.3594   -0.8197 Br  0  0  0  0  0  0  0  0  0  0  0  0
   -3.4606   -0.6519   -1.2035 C   0  0  0  0  0  0  0  0  0  0  0  0
   -2.2136   -1.2504   -1.0094 C   0  0  0  0  0  0  0  0  0  0  0  0
    0.7974    1.0641   -1.1742 H   0  0  0  0  0  0  0  0  0  0  0  0
    2.9105    2.2759   -0.8259 H   0  0  0  0  0  0  0  0  0  0  0  0
    4.2577   -0.8155    1.8631 H   0  0  0  0  0  0  0  0  0  0  0  0
    2.1319   -2.0319    1.5291 H   0  0  0  0  0  0  0  0  0  0  0  0
   -0.8697    1.0209    1.1611 H   0  0  0  0  0  0  0  0  0  0  0  0
   -3.0616    2.0788    0.7986 H   0  0  0  0  0  0  0  0  0  0  0  0
   -4.1902   -1.1319   -1.8509 H   0  0  0  0  0  0  0  0  0  0  0  0
   -1.9853   -2.1938   -1.5026 H   0  0  0  0  0  0  0  0  0  0  0  0
  1  2  2  0
  2  3  1  0
  3  4  2  0
  4  5  1  0
  5  6  2  0
  6  7  1  0
  6  8  1  0
  8  9  2  0
  2 10  1  0
 10 11  2  0
 11 12  1  0
 12 13  2  0
 13 14  1  0
 13 15  1  0
 15 16  2  0
  9  3  1  0
 16 10  1  0
  4 17  1  0
  5 18  1  0
  8 19  1  0
  9 20  1  0
 11 21  1  0
 12 22  1  0
 15 23  1  0
 16 24  1  0
M  END
