
     RDKit          3D

 34 36  0  0  0  0  0  0  0  0999 V2000
    2.2595   -5.5304    1.3440 Br  0  0  0  0  0  0  0  0  0  0  0  0
    1.5582   -3.8293    0.9123 C   0  0  0  0  0  0  0  0  0  0  0  0
    0.6088   -3.7089   -0.0987 C   0  0  0  0  0  0  0  0  0  0  0  0
    0.0905   -2.4498   -0.4163 C   0  0  0  0  0  0  0  0  0  0  0  0
    0.5144   -1.2970    0.2698 C   0  0  0  0  0  0  0  0  0  0  0  0
    1.4748   -1.4469    1.2869 C   0  0  0  0  0  0  0  0  0  0  0  0
    1.9942   -2.7048    1.6077 C   0  0  0  0  0  0  0  0  0  0  0  0
   -0.0211    0.0022   -0.0606 N   0  0  0  0  0  0  0  0  0  0  0  0
   -1.4274    0.1497   -0.3538 C   0  0  0  0  0  0  0  0  0  0  0  0
   -2.3990   -0.5369    0.3962 C   0  0  0  0  0  0  0  0  0  0  0  0
   -3.7598   -0.3937    0.1127 C   0  0  0  0  0  0  0  0  0  0  0  0
   -4.1723    0.4375   -0.9259 C   0  0  0  0  0  0  0  0  0  0  0  0
   -3.2265    1.1262   -1.6814 C   0  0  0  0  0  0  0  0  0  0  0  0
   -1.8657    0.9840   -1.3975 C   0  0  0  0  0  0  0  0  0  0  0  0
    0.8481    1.1542   -0.0984 C   0  0  0  0  0  0  0  0  0  0  0  0
    2.1413    1.0677   -0.6459 C   0  0  0  0  0  0  0  0  0  0  0  0
    2.9841    2.1828   -0.6828 C   0  0  0  0  0  0  0  0  0  0  0  0
    2.5419    3.3994   -0.1706 C   0  0  0  0  0  0  0  0  0  0  0  0
    3.6797    4.9077   -0.2190 Br  0  0  0  0  0  0  0  0  0  0  0  0
    1.2668    3.5123    0.3768 C   0  0  0  0  0  0  0  0  0  0  0  0
    0.4261    2.3957    0.4114 C   0  0  0  0  0  0  0  0  0  0  0  0
    0.2666   -4.5820   -0.6478 H   0  0  0  0  0  0  0  0  0  0  0  0
   -0.6381   -2.3706   -1.2204 H   0  0  0  0  0  0  0  0  0  0  0  0
    1.8123   -0.5812    1.8527 H   0  0  0  0  0  0  0  0  0  0  0  0
    2.7316   -2.7924    2.4011 H   0  0  0  0  0  0  0  0  0  0  0  0
   -2.1008   -1.1768    1.2233 H   0  0  0  0  0  0  0  0  0  0  0  0
   -4.4958   -0.9292    0.7068 H   0  0  0  0  0  0  0  0  0  0  0  0
   -5.2309    0.5484   -1.1465 H   0  0  0  0  0  0  0  0  0  0  0  0
   -3.5451    1.7723   -2.4953 H   0  0  0  0  0  0  0  0  0  0  0  0
   -1.1440    1.5170   -2.0121 H   0  0  0  0  0  0  0  0  0  0  0  0
    2.4954    0.1295   -1.0675 H   0  0  0  0  0  0  0  0  0  0  0  0
    3.9764    2.0890   -1.1157 H   0  0  0  0  0  0  0  0  0  0  0  0
    0.9166    4.4580    0.7816 H   0  0  0  0  0  0  0  0  0  0  0  0
   -0.5609    2.4964    0.8579 H   0  0  0  0  0  0  0  0  0  0  0  0
  1  2  1  0
  2  3  2  0
  3  4  1  0
  4  5  2  0
  5  6  1  0
  6  7  2  0
  5  8  1  0
  8  9  1  0
  9 10  2  0
 10 11  1  0
 11 12  2  0
 12 13  1  0
 13 14  2  0
  8 15  1  0
 15 16  2  0
 16 17  1  0
 17 18  2  0
 18 19  1  0
 18 20  1  0
 20 21  2  0
  7  2  1  0
 14  9  1  0
 21 15  1  0
  3 22  1  0
  4 23  1  0
  6 24  1  0
  7 25  1  0
 10 26  1  0
 11 27  1  0
 12 28  1  0
 13 29  1  0
 14 30  1  0
 16 31  1  0
 17 32  1  0
 20 33  1  0
 21 34  1  0
M  END
