
     RDKit          3D

 34 36  0  0  0  0  0  0  0  0999 V2000
    5.1955   -2.6150   -1.9545 Br  0  0  0  0  0  0  0  0  0  0  0  0
    3.5973   -1.8044   -1.3542 C   0  0  0  0  0  0  0  0  0  0  0  0
    2.3740   -2.4221   -1.5997 C   0  0  0  0  0  0  0  0  0  0  0  0
    1.1924   -1.8214   -1.1547 C   0  0  0  0  0  0  0  0  0  0  0  0
    1.2180   -0.5978   -0.4607 C   0  0  0  0  0  0  0  0  0  0  0  0
    2.4674    0.0054   -0.2269 C   0  0  0  0  0  0  0  0  0  0  0  0
    3.6508   -0.5933   -0.6698 C   0  0  0  0  0  0  0  0  0  0  0  0
   -0.0025    0.0215   -0.0016 N   0  0  0  0  0  0  0  0  0  0  0  0
   -0.1708    1.4517   -0.1094 C   0  0  0  0  0  0  0  0  0  0  0  0
    0.2591    2.1468   -1.2538 C   0  0  0  0  0  0  0  0  0  0  0  0
    0.0957    3.5307   -1.3582 C   0  0  0  0  0  0  0  0  0  0  0  0
   -0.4993    4.2432   -0.3199 C   0  0  0  0  0  0  0  0  0  0  0  0
   -0.9317    3.5742    0.8226 C   0  0  0  0  0  0  0  0  0  0  0  0
   -0.7694    2.1902    0.9269 C   0  0  0  0  0  0  0  0  0  0  0  0
   -1.0550   -0.7879    0.5652 C   0  0  0  0  0  0  0  0  0  0  0  0
   -2.4056   -0.5308    0.2665 C   0  0  0  0  0  0  0  0  0  0  0  0
   -3.4263   -1.3142    0.8135 C   0  0  0  0  0  0  0  0  0  0  0  0
   -3.1066   -2.3654    1.6685 C   0  0  0  0  0  0  0  0  0  0  0  0
   -4.4848   -3.4252    2.4096 Br  0  0  0  0  0  0  0  0  0  0  0  0
   -1.7783   -2.6407    1.9814 C   0  0  0  0  0  0  0  0  0  0  0  0
   -0.7597   -1.8561    1.4320 C   0  0  0  0  0  0  0  0  0  0  0  0
    2.3248   -3.3651   -2.1375 H   0  0  0  0  0  0  0  0  0  0  0  0
    0.2439   -2.3078   -1.3714 H   0  0  0  0  0  0  0  0  0  0  0  0
    2.5278    0.9431    0.3213 H   0  0  0  0  0  0  0  0  0  0  0  0
    4.6024   -0.1075   -0.4716 H   0  0  0  0  0  0  0  0  0  0  0  0
    0.7096    1.6085   -2.0843 H   0  0  0  0  0  0  0  0  0  0  0  0
    0.4304    4.0493   -2.2528 H   0  0  0  0  0  0  0  0  0  0  0  0
   -0.6259    5.3197   -0.4011 H   0  0  0  0  0  0  0  0  0  0  0  0
   -1.3926    4.1281    1.6363 H   0  0  0  0  0  0  0  0  0  0  0  0
   -1.0979    1.6914    1.8356 H   0  0  0  0  0  0  0  0  0  0  0  0
   -2.6712    0.2760   -0.4132 H   0  0  0  0  0  0  0  0  0  0  0  0
   -4.4608   -1.0960    0.5622 H   0  0  0  0  0  0  0  0  0  0  0  0
   -1.5222   -3.4567    2.6518 H   0  0  0  0  0  0  0  0  0  0  0  0
    0.2716   -2.0728    1.7017 H   0  0  0  0  0  0  0  0  0  0  0  0
  1  2  1  0
  2  3  2  0
  3  4  1  0
  4  5  2  0
  5  6  1  0
  6  7  2  0
  5  8  1  0
  8  9  1  0
  9 10  2  0
 10 11  1  0
 11 12  2  0
 12 13  1  0
 13 14  2  0
  8 15  1  0
 15 16  2  0
 16 17  1  0
 17 18  2  0
 18 19  1  0
 18 20  1  0
 20 21  2  0
  7  2  1  0
 14  9  1  0
 21 15  1  0
  3 22  1  0
  4 23  1  0
  6 24  1  0
  7 25  1  0
 10 26  1  0
 11 27  1  0
 12 28  1  0
 13 29  1  0
 14 30  1  0
 16 31  1  0
 17 32  1  0
 20 33  1  0
 21 34  1  0
M  END
