
     RDKit          3D

 22 23  0  0  0  0  0  0  0  0999 V2000
    5.4095   -0.3322   -0.4694 Br  0  0  0  0  0  0  0  0  0  0  0  0
    3.5302   -0.2168   -0.3063 C   0  0  0  0  0  0  0  0  0  0  0  0
    2.9026   -0.7117    0.8333 C   0  0  0  0  0  0  0  0  0  0  0  0
    1.5120   -0.6246    0.9519 C   0  0  0  0  0  0  0  0  0  0  0  0
    0.7319   -0.0449   -0.0635 C   0  0  0  0  0  0  0  0  0  0  0  0
   -0.7319    0.0449    0.0635 C   0  0  0  0  0  0  0  0  0  0  0  0
   -1.3250    0.6469    1.1867 C   0  0  0  0  0  0  0  0  0  0  0  0
   -2.7154    0.7340    1.3094 C   0  0  0  0  0  0  0  0  0  0  0  0
   -3.5302    0.2168    0.3063 C   0  0  0  0  0  0  0  0  0  0  0  0
   -5.4095    0.3321    0.4694 Br  0  0  0  0  0  0  0  0  0  0  0  0
   -2.9685   -0.3850   -0.8162 C   0  0  0  0  0  0  0  0  0  0  0  0
   -1.5776   -0.4686   -0.9348 C   0  0  0  0  0  0  0  0  0  0  0  0
    1.3907    0.4464   -1.2038 C   0  0  0  0  0  0  0  0  0  0  0  0
    2.7812    0.3627   -1.3265 C   0  0  0  0  0  0  0  0  0  0  0  0
    3.4808   -1.1682    1.6322 H   0  0  0  0  0  0  0  0  0  0  0  0
    1.0358   -1.0267    1.8444 H   0  0  0  0  0  0  0  0  0  0  0  0
   -0.7020    1.0665    1.9745 H   0  0  0  0  0  0  0  0  0  0  0  0
   -3.1470    1.2079    2.1869 H   0  0  0  0  0  0  0  0  0  0  0  0
   -3.5986   -0.7937   -1.6015 H   0  0  0  0  0  0  0  0  0  0  0  0
   -1.1546   -0.9524   -1.8134 H   0  0  0  0  0  0  0  0  0  0  0  0
    0.8208    0.9127   -2.0055 H   0  0  0  0  0  0  0  0  0  0  0  0
    3.2648    0.7539   -2.2176 H   0  0  0  0  0  0  0  0  0  0  0  0
  1  2  1  0
  2  3  2  0
  3  4  1  0
  4  5  2  0
  5  6  1  0
  6  7  2  0
  7  8  1  0
  8  9  2  0
  9 10  1  0
  9 11  1  0
 11 12  2  0
  5 13  1  0
 13 14  2  0
 14  2  1  0
 12  6  1  0
  3 15  1  0
  4 16  1  0
  7 17  1  0
  8 18  1  0
 11 19  1  0
 12 20  1  0
 13 21  1  0
 14 22  1  0
M  END
