
     RDKit          3D

 12 12  0  0  0  0  0  0  0  0999 V2000
   -2.6148    1.4126    0.0543 O   0  0  0  0  0  0  0  0  0  0  0  0
   -1.9011    0.4534   -0.1983 C   0  0  0  0  0  0  0  0  0  0  0  0
   -2.4427   -0.6590   -0.7453 O   0  0  0  0  0  0  0  0  0  0  0  0
   -0.4805    0.3018    0.0041 C   0  0  0  0  0  0  0  0  0  0  0  0
    0.3384   -0.7794   -0.2780 C   0  0  0  0  0  0  0  0  0  0  0  0
    1.6923   -0.5294    0.0733 C   0  0  0  0  0  0  0  0  0  0  0  0
    3.0167   -1.8463   -0.2097 Br  0  0  0  0  0  0  0  0  0  0  0  0
    1.8682    0.7194    0.6072 C   0  0  0  0  0  0  0  0  0  0  0  0
    3.5285    1.4559    1.2106 Br  0  0  0  0  0  0  0  0  0  0  0  0
    0.4154    1.5961    0.6898 S   0  0  0  0  0  0  0  0  0  0  0  0
   -3.3906   -0.4246   -0.8269 H   0  0  0  0  0  0  0  0  0  0  0  0
   -0.0297   -1.7005   -0.7160 H   0  0  0  0  0  0  0  0  0  0  0  0
  1  2  2  0
  2  3  1  0
  2  4  1  0
  4  5  2  0
  5  6  1  0
  6  7  1  0
  6  8  2  0
  8  9  1  0
  8 10  1  0
 10  4  1  0
  3 11  1  0
  5 12  1  0
M  END
