
     RDKit          3D

 18 18  0  0  0  0  0  0  0  0999 V2000
   -1.6069   -0.7262   -1.1043 C   0  0  0  0  0  0  0  0  0  0  0  0
   -1.0748    0.4026   -0.2226 C   0  0  0  0  0  0  0  0  0  0  0  0
   -1.6812    0.3374    1.1785 C   0  0  0  0  0  0  0  0  0  0  0  0
    0.4241    0.3938   -0.1697 C   0  0  0  0  0  0  0  0  0  0  0  0
    1.2224    1.3551   -0.5916 N   0  0  0  0  0  0  0  0  0  0  0  0
    2.5007    0.9163   -0.3456 C   0  0  0  0  0  0  0  0  0  0  0  0
    4.0155    1.9481   -0.7770 Br  0  0  0  0  0  0  0  0  0  0  0  0
    2.4781   -0.3270    0.2330 C   0  0  0  0  0  0  0  0  0  0  0  0
    3.9198   -1.4187    0.7886 Br  0  0  0  0  0  0  0  0  0  0  0  0
    1.1573   -0.6515    0.3412 N   0  0  0  0  0  0  0  0  0  0  0  0
   -1.3597   -1.7121   -0.6945 H   0  0  0  0  0  0  0  0  0  0  0  0
   -2.6967   -0.6650   -1.1954 H   0  0  0  0  0  0  0  0  0  0  0  0
   -1.1819   -0.6695   -2.1127 H   0  0  0  0  0  0  0  0  0  0  0  0
   -1.3851    1.3534   -0.6756 H   0  0  0  0  0  0  0  0  0  0  0  0
   -1.4371   -0.6043    1.6828 H   0  0  0  0  0  0  0  0  0  0  0  0
   -1.3094    1.1559    1.8050 H   0  0  0  0  0  0  0  0  0  0  0  0
   -2.7724    0.4194    1.1318 H   0  0  0  0  0  0  0  0  0  0  0  0
    0.7872   -1.5077    0.7281 H   0  0  0  0  0  0  0  0  0  0  0  0
  1  2  1  0
  2  3  1  0
  2  4  1  0
  4  5  2  0
  5  6  1  0
  6  7  1  0
  6  8  2  0
  8  9  1  0
  8 10  1  0
 10  4  1  0
  1 11  1  0
  1 12  1  0
  1 13  1  0
  2 14  1  0
  3 15  1  0
  3 16  1  0
  3 17  1  0
 10 18  1  0
M  END
