
     RDKit          3D

 15 15  0  0  0  0  0  0  0  0999 V2000
   -2.9938   -0.3975   -0.7451 N   0  0  0  0  0  0  0  0  0  0  0  0
   -1.6427   -0.6269   -0.3796 N   0  0  0  0  0  0  0  0  0  0  0  0
   -0.8891    0.4308    0.1352 C   0  0  0  0  0  0  0  0  0  0  0  0
   -1.3935    1.5324    0.3392 O   0  0  0  0  0  0  0  0  0  0  0  0
    0.4929    0.1200    0.3841 C   0  0  0  0  0  0  0  0  0  0  0  0
    0.9683   -1.1196    0.7293 N   0  0  0  0  0  0  0  0  0  0  0  0
    2.2975   -1.1756    0.9054 N   0  0  0  0  0  0  0  0  0  0  0  0
    2.6868    0.0881    0.7212 C   0  0  0  0  0  0  0  0  0  0  0  0
    4.4887    0.6084    0.8738 Br  0  0  0  0  0  0  0  0  0  0  0  0
    1.6096    0.9314    0.4051 C   0  0  0  0  0  0  0  0  0  0  0  0
    1.7062    2.7705    0.0509 Br  0  0  0  0  0  0  0  0  0  0  0  0
   -3.5425   -0.3502    0.1206 H   0  0  0  0  0  0  0  0  0  0  0  0
   -3.0506    0.5675   -1.1013 H   0  0  0  0  0  0  0  0  0  0  0  0
   -1.1728   -1.4088   -0.8299 H   0  0  0  0  0  0  0  0  0  0  0  0
    0.4350   -1.9706    0.8790 H   0  0  0  0  0  0  0  0  0  0  0  0
  1  2  1  0
  2  3  1  0
  3  4  2  0
  3  5  1  0
  5  6  1  0
  6  7  1  0
  7  8  2  0
  8  9  1  0
  8 10  1  0
 10 11  1  0
 10  5  2  0
  1 12  1  0
  1 13  1  0
  2 14  1  0
  6 15  1  0
M  END
