
     RDKit          3D

 12 12  0  0  0  0  0  0  0  0999 V2000
   -1.6996    0.3223   -0.0338 C   0  0  0  0  0  0  0  0  0  0  0  0
   -0.3188   -0.0803    0.0450 N   0  0  0  0  0  0  0  0  0  0  0  0
    0.1320   -1.2989    0.4672 C   0  0  0  0  0  0  0  0  0  0  0  0
    1.4439   -1.3682    0.4279 N   0  0  0  0  0  0  0  0  0  0  0  0
    1.8548   -0.1431   -0.0391 C   0  0  0  0  0  0  0  0  0  0  0  0
    3.6774    0.2709   -0.2799 Br  0  0  0  0  0  0  0  0  0  0  0  0
    0.7744    0.6730   -0.2836 C   0  0  0  0  0  0  0  0  0  0  0  0
    0.7838    2.4570   -0.9347 Br  0  0  0  0  0  0  0  0  0  0  0  0
   -2.3401   -0.4993    0.2973 H   0  0  0  0  0  0  0  0  0  0  0  0
   -1.9315    0.5727   -1.0721 H   0  0  0  0  0  0  0  0  0  0  0  0
   -1.8483    1.1883    0.6160 H   0  0  0  0  0  0  0  0  0  0  0  0
   -0.5281   -2.0944    0.7898 H   0  0  0  0  0  0  0  0  0  0  0  0
  1  2  1  0
  2  3  1  0
  3  4  2  0
  4  5  1  0
  5  6  1  0
  5  7  2  0
  7  8  1  0
  7  2  1  0
  1  9  1  0
  1 10  1  0
  1 11  1  0
  3 12  1  0
M  END
