
     RDKit          3D

 14 14  0  0  0  0  0  0  0  0999 V2000
    2.3748   -0.3190    0.0195 N   0  0  0  0  0  0  0  0  0  0  0  0
    0.9846   -0.1373    0.0725 C   0  0  0  0  0  0  0  0  0  0  0  0
    0.1273   -1.1514   -0.3611 C   0  0  0  0  0  0  0  0  0  0  0  0
   -1.2573   -0.9371   -0.4321 C   0  0  0  0  0  0  0  0  0  0  0  0
   -2.3295   -2.3995   -1.0000 Br  0  0  0  0  0  0  0  0  0  0  0  0
   -1.7902    0.3156   -0.1021 C   0  0  0  0  0  0  0  0  0  0  0  0
   -3.6481    0.7028   -0.1648 Br  0  0  0  0  0  0  0  0  0  0  0  0
   -0.9370    1.3506    0.2829 C   0  0  0  0  0  0  0  0  0  0  0  0
    0.4335    1.1210    0.3475 C   0  0  0  0  0  0  0  0  0  0  0  0
    1.2417    2.1312    0.7054 F   0  0  0  0  0  0  0  0  0  0  0  0
    2.8858    0.3691    0.5701 H   0  0  0  0  0  0  0  0  0  0  0  0
    2.6884   -1.2698    0.1858 H   0  0  0  0  0  0  0  0  0  0  0  0
    0.5417   -2.1144   -0.6500 H   0  0  0  0  0  0  0  0  0  0  0  0
   -1.3158    2.3383    0.5265 H   0  0  0  0  0  0  0  0  0  0  0  0
  1  2  1  0
  2  3  2  0
  3  4  1  0
  4  5  1  0
  4  6  2  0
  6  7  1  0
  6  8  1  0
  8  9  2  0
  9 10  1  0
  9  2  1  0
  1 11  1  0
  1 12  1  0
  3 13  1  0
  8 14  1  0
M  END
