
     RDKit          3D

 15 15  0  0  0  0  0  0  0  0999 V2000
    2.4542   -2.0027   -0.8449 O   0  0  0  0  0  0  0  0  0  0  0  0
    2.1430   -0.8214   -0.7399 C   0  0  0  0  0  0  0  0  0  0  0  0
    0.8011   -0.4140   -0.2763 C   0  0  0  0  0  0  0  0  0  0  0  0
   -0.1405   -1.3964    0.0518 C   0  0  0  0  0  0  0  0  0  0  0  0
   -1.4151   -1.0260    0.4921 C   0  0  0  0  0  0  0  0  0  0  0  0
   -2.6271   -2.4254    0.9149 Br  0  0  0  0  0  0  0  0  0  0  0  0
   -1.7459    0.3305    0.6035 C   0  0  0  0  0  0  0  0  0  0  0  0
   -3.4486    0.9357    1.1915 Br  0  0  0  0  0  0  0  0  0  0  0  0
   -0.8017    1.3125    0.2745 C   0  0  0  0  0  0  0  0  0  0  0  0
    0.4682    0.9374   -0.1642 C   0  0  0  0  0  0  0  0  0  0  0  0
    1.3885    1.8948   -0.4849 O   0  0  0  0  0  0  0  0  0  0  0  0
    2.8575   -0.0197   -0.9890 H   0  0  0  0  0  0  0  0  0  0  0  0
    0.1274   -2.4481   -0.0385 H   0  0  0  0  0  0  0  0  0  0  0  0
   -1.0656    2.3630    0.3634 H   0  0  0  0  0  0  0  0  0  0  0  0
    1.0046    2.7797   -0.3541 H   0  0  0  0  0  0  0  0  0  0  0  0
  1  2  2  0
  2  3  1  0
  3  4  2  0
  4  5  1  0
  5  6  1  0
  5  7  2  0
  7  8  1  0
  7  9  1  0
  9 10  2  0
 10 11  1  0
 10  3  1  0
  2 12  1  0
  4 13  1  0
  9 14  1  0
 11 15  1  0
M  END
