
     RDKit          3D

 11 11  0  0  0  0  0  0  0  0999 V2000
   -2.9102    1.0041    0.0073 O   0  0  0  0  0  0  0  0  0  0  0  0
   -2.1751    0.0211   -0.0229 C   0  0  0  0  0  0  0  0  0  0  0  0
   -0.7348    0.0413   -0.0064 C   0  0  0  0  0  0  0  0  0  0  0  0
    0.1942   -0.9818   -0.0360 C   0  0  0  0  0  0  0  0  0  0  0  0
    1.4598   -0.3586    0.0020 C   0  0  0  0  0  0  0  0  0  0  0  0
    3.0763   -1.3057   -0.0172 Br  0  0  0  0  0  0  0  0  0  0  0  0
    1.2491    0.9974    0.0523 C   0  0  0  0  0  0  0  0  0  0  0  0
    2.5726    2.3637    0.1198 Br  0  0  0  0  0  0  0  0  0  0  0  0
   -0.0913    1.2472    0.0474 O   0  0  0  0  0  0  0  0  0  0  0  0
   -2.6197   -0.9879   -0.0669 H   0  0  0  0  0  0  0  0  0  0  0  0
   -0.0209   -2.0407   -0.0794 H   0  0  0  0  0  0  0  0  0  0  0  0
  1  2  2  0
  2  3  1  0
  3  4  2  0
  4  5  1  0
  5  6  1  0
  5  7  2  0
  7  8  1  0
  7  9  1  0
  9  3  1  0
  2 10  1  0
  4 11  1  0
M  END
