
     RDKit          3D

 12 12  0  0  0  0  0  0  0  0999 V2000
   -2.1560   -1.2237    0.6858 O   0  0  0  0  0  0  0  0  0  0  0  0
   -1.5915   -0.3045    0.1180 C   0  0  0  0  0  0  0  0  0  0  0  0
   -2.3076    0.6401   -0.5302 O   0  0  0  0  0  0  0  0  0  0  0  0
   -0.1954   -0.0372    0.0144 C   0  0  0  0  0  0  0  0  0  0  0  0
    0.3260    1.0381   -0.6568 N   0  0  0  0  0  0  0  0  0  0  0  0
    1.6678    1.1091   -0.6359 N   0  0  0  0  0  0  0  0  0  0  0  0
    2.0196    0.0363    0.0773 C   0  0  0  0  0  0  0  0  0  0  0  0
    3.8209   -0.3758    0.4344 Br  0  0  0  0  0  0  0  0  0  0  0  0
    0.9058   -0.7066    0.5033 C   0  0  0  0  0  0  0  0  0  0  0  0
    0.9401   -2.2785    1.5242 Br  0  0  0  0  0  0  0  0  0  0  0  0
   -3.2331    0.3456   -0.3855 H   0  0  0  0  0  0  0  0  0  0  0  0
   -0.1966    1.7572   -1.1491 H   0  0  0  0  0  0  0  0  0  0  0  0
  1  2  2  0
  2  3  1  0
  2  4  1  0
  4  5  1  0
  5  6  1  0
  6  7  2  0
  7  8  1  0
  7  9  1  0
  9 10  1  0
  9  4  2  0
  3 11  1  0
  5 12  1  0
M  END
