
     RDKit          3D

 17 17  0  0  0  0  0  0  0  0999 V2000
   -1.8821    1.1029    0.3219 C   0  0  0  0  0  0  0  0  0  0  0  0
   -0.5149    0.5212    0.0844 C   0  0  0  0  0  0  0  0  0  0  0  0
    0.5767    1.3921   -0.0806 C   0  0  0  0  0  0  0  0  0  0  0  0
    1.8712    0.8971   -0.2656 C   0  0  0  0  0  0  0  0  0  0  0  0
    3.2664    2.1679   -0.4774 Br  0  0  0  0  0  0  0  0  0  0  0  0
    2.0854   -0.4810   -0.2714 C   0  0  0  0  0  0  0  0  0  0  0  0
    3.8045   -1.2636   -0.4753 Br  0  0  0  0  0  0  0  0  0  0  0  0
    1.0008   -1.3514   -0.1128 C   0  0  0  0  0  0  0  0  0  0  0  0
   -0.3083   -0.8672    0.0131 C   0  0  0  0  0  0  0  0  0  0  0  0
   -1.3418   -1.7761    0.2821 N   0  0  0  0  0  0  0  0  0  0  0  0
   -2.5497    0.8502   -0.5081 H   0  0  0  0  0  0  0  0  0  0  0  0
   -2.3016    0.7213    1.2585 H   0  0  0  0  0  0  0  0  0  0  0  0
   -1.8483    2.1948    0.4003 H   0  0  0  0  0  0  0  0  0  0  0  0
    0.4128    2.4678   -0.0507 H   0  0  0  0  0  0  0  0  0  0  0  0
    1.1751   -2.4246   -0.0887 H   0  0  0  0  0  0  0  0  0  0  0  0
   -1.1769   -2.7119   -0.0763 H   0  0  0  0  0  0  0  0  0  0  0  0
   -2.2694   -1.4393    0.0465 H   0  0  0  0  0  0  0  0  0  0  0  0
  1  2  1  0
  2  3  2  0
  3  4  1  0
  4  5  1  0
  4  6  2  0
  6  7  1  0
  6  8  1  0
  8  9  2  0
  9 10  1  0
  9  2  1  0
  1 11  1  0
  1 12  1  0
  1 13  1  0
  3 14  1  0
  8 15  1  0
 10 16  1  0
 10 17  1  0
M  END
