
     RDKit          3D

 13 13  0  0  0  0  0  0  0  0999 V2000
    2.4410    0.1646   -0.0898 N   0  0  0  0  0  0  0  0  0  0  0  0
    1.0458    0.2132   -0.0856 C   0  0  0  0  0  0  0  0  0  0  0  0
    0.3068   -0.8990    0.2921 C   0  0  0  0  0  0  0  0  0  0  0  0
   -1.0878   -0.8200    0.2863 C   0  0  0  0  0  0  0  0  0  0  0  0
   -2.0493   -2.3710    0.8119 Br  0  0  0  0  0  0  0  0  0  0  0  0
   -1.7101    0.3636   -0.0950 C   0  0  0  0  0  0  0  0  0  0  0  0
   -3.5839    0.6115   -0.1495 Br  0  0  0  0  0  0  0  0  0  0  0  0
   -0.8895    1.4188   -0.4550 C   0  0  0  0  0  0  0  0  0  0  0  0
    0.4639    1.3629   -0.4563 N   0  0  0  0  0  0  0  0  0  0  0  0
    2.7644   -0.5615   -0.7214 H   0  0  0  0  0  0  0  0  0  0  0  0
    2.7872   -0.0461    0.8410 H   0  0  0  0  0  0  0  0  0  0  0  0
    0.8087   -1.8143    0.5867 H   0  0  0  0  0  0  0  0  0  0  0  0
   -1.2972    2.3773   -0.7653 H   0  0  0  0  0  0  0  0  0  0  0  0
  1  2  1  0
  2  3  2  0
  3  4  1  0
  4  5  1  0
  4  6  2  0
  6  7  1  0
  6  8  1  0
  8  9  2  0
  9  2  1  0
  1 10  1  0
  1 11  1  0
  3 12  1  0
  8 13  1  0
M  END
