
     RDKit          3D

 15 15  0  0  0  0  0  0  0  0999 V2000
    2.4253   -0.6440    0.3148 C   0  0  0  0  0  0  0  0  0  0  0  0
    1.0481   -0.1239    0.1299 C   0  0  0  0  0  0  0  0  0  0  0  0
    0.0145   -0.9755    0.0406 N   0  0  0  0  0  0  0  0  0  0  0  0
   -1.0584   -0.1715   -0.1193 N   0  0  0  0  0  0  0  0  0  0  0  0
   -2.3707   -0.7568   -0.2525 C   0  0  0  0  0  0  0  0  0  0  0  0
   -0.7435    1.1573   -0.1348 C   0  0  0  0  0  0  0  0  0  0  0  0
   -1.9464    2.6150   -0.3363 Br  0  0  0  0  0  0  0  0  0  0  0  0
    0.6157    1.2168    0.0249 C   0  0  0  0  0  0  0  0  0  0  0  0
    1.7282    2.7214    0.0976 Br  0  0  0  0  0  0  0  0  0  0  0  0
    2.4394   -1.7380    0.3601 H   0  0  0  0  0  0  0  0  0  0  0  0
    3.0665   -0.3346   -0.5167 H   0  0  0  0  0  0  0  0  0  0  0  0
    2.8562   -0.2643    1.2467 H   0  0  0  0  0  0  0  0  0  0  0  0
   -2.2926   -1.8460   -0.1998 H   0  0  0  0  0  0  0  0  0  0  0  0
   -2.7846   -0.4635   -1.2203 H   0  0  0  0  0  0  0  0  0  0  0  0
   -2.9975   -0.3924    0.5651 H   0  0  0  0  0  0  0  0  0  0  0  0
  1  2  1  0
  2  3  2  0
  3  4  1  0
  4  5  1  0
  4  6  1  0
  6  7  1  0
  6  8  2  0
  8  9  1  0
  8  2  1  0
  1 10  1  0
  1 11  1  0
  1 12  1  0
  5 13  1  0
  5 14  1  0
  5 15  1  0
M  END
