
     RDKit          3D

 11 11  0  0  0  0  0  0  0  0999 V2000
   -1.7380   -0.0410    0.0514 C   0  0  0  0  0  0  0  0  0  0  0  0
   -0.3197   -0.2633    0.1409 N   0  0  0  0  0  0  0  0  0  0  0  0
    0.1567   -1.3861    0.7098 N   0  0  0  0  0  0  0  0  0  0  0  0
    1.4824   -1.3250    0.6553 N   0  0  0  0  0  0  0  0  0  0  0  0
    1.8288   -0.1496    0.0451 C   0  0  0  0  0  0  0  0  0  0  0  0
    3.6162    0.3565   -0.2463 Br  0  0  0  0  0  0  0  0  0  0  0  0
    0.6919    0.5431   -0.2912 C   0  0  0  0  0  0  0  0  0  0  0  0
    0.5439    2.2238   -1.1527 Br  0  0  0  0  0  0  0  0  0  0  0  0
   -2.0095    0.0529   -1.0029 H   0  0  0  0  0  0  0  0  0  0  0  0
   -1.9817    0.8747    0.5956 H   0  0  0  0  0  0  0  0  0  0  0  0
   -2.2710   -0.8860    0.4951 H   0  0  0  0  0  0  0  0  0  0  0  0
  1  2  1  0
  2  3  1  0
  3  4  2  0
  4  5  1  0
  5  6  1  0
  5  7  2  0
  7  8  1  0
  7  2  1  0
  1  9  1  0
  1 10  1  0
  1 11  1  0
M  END
