
     RDKit          3D

 14 14  0  0  0  0  0  0  0  0999 V2000
    2.6454   -1.8033    0.3916 O   0  0  0  0  0  0  0  0  0  0  0  0
    2.3083   -0.7182   -0.0662 C   0  0  0  0  0  0  0  0  0  0  0  0
    0.9061   -0.2749   -0.0293 C   0  0  0  0  0  0  0  0  0  0  0  0
   -0.0846   -1.0857    0.5327 C   0  0  0  0  0  0  0  0  0  0  0  0
   -1.4128   -0.6439    0.5572 C   0  0  0  0  0  0  0  0  0  0  0  0
   -2.6965   -1.8049    1.3381 Br  0  0  0  0  0  0  0  0  0  0  0  0
   -1.7433    0.6084    0.0185 C   0  0  0  0  0  0  0  0  0  0  0  0
   -3.5136    1.2956    0.0042 Br  0  0  0  0  0  0  0  0  0  0  0  0
   -0.7450    1.4128   -0.5418 C   0  0  0  0  0  0  0  0  0  0  0  0
    0.5723    0.9655   -0.5617 C   0  0  0  0  0  0  0  0  0  0  0  0
    1.5138    1.7508   -1.1029 F   0  0  0  0  0  0  0  0  0  0  0  0
    3.0420   -0.0327   -0.5230 H   0  0  0  0  0  0  0  0  0  0  0  0
    0.1847   -2.0559    0.9477 H   0  0  0  0  0  0  0  0  0  0  0  0
   -0.9767    2.3864   -0.9650 H   0  0  0  0  0  0  0  0  0  0  0  0
  1  2  2  0
  2  3  1  0
  3  4  2  0
  4  5  1  0
  5  6  1  0
  5  7  2  0
  7  8  1  0
  7  9  1  0
  9 10  2  0
 10 11  1  0
 10  3  1  0
  2 12  1  0
  4 13  1  0
  9 14  1  0
M  END
