
     RDKit          3D

 13 13  0  0  0  0  0  0  0  0999 V2000
    2.3866   -0.4600   -0.2939 N   0  0  0  0  0  0  0  0  0  0  0  0
    1.0268   -0.3028   -0.0193 C   0  0  0  0  0  0  0  0  0  0  0  0
    0.2718    0.6238   -0.7242 C   0  0  0  0  0  0  0  0  0  0  0  0
   -1.0864    0.7584   -0.4270 C   0  0  0  0  0  0  0  0  0  0  0  0
   -2.0718    2.0411   -1.4219 Br  0  0  0  0  0  0  0  0  0  0  0  0
   -1.6573   -0.0327    0.5639 C   0  0  0  0  0  0  0  0  0  0  0  0
   -3.4778    0.0430    1.0691 Br  0  0  0  0  0  0  0  0  0  0  0  0
   -0.8244   -0.9285    1.2123 C   0  0  0  0  0  0  0  0  0  0  0  0
    0.4942   -1.0744    0.9393 N   0  0  0  0  0  0  0  0  0  0  0  0
    2.8786    0.4145   -0.1396 H   0  0  0  0  0  0  0  0  0  0  0  0
    2.5191   -0.7328   -1.2627 H   0  0  0  0  0  0  0  0  0  0  0  0
    0.7335    1.2328   -1.4940 H   0  0  0  0  0  0  0  0  0  0  0  0
   -1.1929   -1.5824    1.9982 H   0  0  0  0  0  0  0  0  0  0  0  0
  1  2  1  0
  2  3  2  0
  3  4  1  0
  4  5  1  0
  4  6  2  0
  6  7  1  0
  6  8  1  0
  8  9  2  0
  9  2  1  0
  1 10  1  0
  1 11  1  0
  3 12  1  0
  8 13  1  0
M  END
