
     RDKit          3D

 11 11  0  0  0  0  0  0  0  0999 V2000
   -1.7315   -0.0272    0.1612 C   0  0  0  0  0  0  0  0  0  0  0  0
   -0.3108   -0.2512    0.1780 N   0  0  0  0  0  0  0  0  0  0  0  0
    0.1981   -1.3356    0.7915 N   0  0  0  0  0  0  0  0  0  0  0  0
    1.5180   -1.2862    0.6513 N   0  0  0  0  0  0  0  0  0  0  0  0
    1.8278   -0.1570   -0.0578 C   0  0  0  0  0  0  0  0  0  0  0  0
    3.5945    0.3177   -0.4928 Br  0  0  0  0  0  0  0  0  0  0  0  0
    0.6734    0.5180   -0.3697 C   0  0  0  0  0  0  0  0  0  0  0  0
    0.4751    2.1372   -1.3328 Br  0  0  0  0  0  0  0  0  0  0  0  0
   -2.2374   -0.8370    0.6935 H   0  0  0  0  0  0  0  0  0  0  0  0
   -2.0677   -0.0034   -0.8782 H   0  0  0  0  0  0  0  0  0  0  0  0
   -1.9395    0.9247    0.6558 H   0  0  0  0  0  0  0  0  0  0  0  0
  1  2  1  0
  2  3  1  0
  3  4  2  0
  4  5  1  0
  5  6  1  0
  5  7  2  0
  7  8  1  0
  7  2  1  0
  1  9  1  0
  1 10  1  0
  1 11  1  0
M  END
