
     RDKit          3D

 18 18  0  0  0  0  0  0  0  0999 V2000
    2.4583    0.2888   -1.2784 O   0  0  0  0  0  0  0  0  0  0  0  0
    1.8574   -0.5118   -0.5902 C   0  0  0  0  0  0  0  0  0  0  0  0
    2.4539   -1.6072   -0.0884 O   0  0  0  0  0  0  0  0  0  0  0  0
    0.4311   -0.4490   -0.2074 C   0  0  0  0  0  0  0  0  0  0  0  0
   -0.3159   -1.6352   -0.1331 C   0  0  0  0  0  0  0  0  0  0  0  0
   -1.6900   -1.5924    0.1327 C   0  0  0  0  0  0  0  0  0  0  0  0
   -2.6072   -3.2539    0.2090 Br  0  0  0  0  0  0  0  0  0  0  0  0
   -2.3278   -0.3597    0.3159 C   0  0  0  0  0  0  0  0  0  0  0  0
   -4.1865   -0.1966    0.6684 Br  0  0  0  0  0  0  0  0  0  0  0  0
   -1.5862    0.8239    0.2465 C   0  0  0  0  0  0  0  0  0  0  0  0
   -0.2065    0.7783    0.0006 C   0  0  0  0  0  0  0  0  0  0  0  0
    0.5139    2.0608    0.0038 C   0  0  0  0  0  0  0  0  0  0  0  0
    0.1568    3.0773   -0.5574 O   0  0  0  0  0  0  0  0  0  0  0  0
    1.5723    2.0142    0.8285 O   0  0  0  0  0  0  0  0  0  0  0  0
    3.3858   -1.5311   -0.3854 H   0  0  0  0  0  0  0  0  0  0  0  0
    0.1748   -2.5928   -0.3003 H   0  0  0  0  0  0  0  0  0  0  0  0
   -2.0719    1.7878    0.3941 H   0  0  0  0  0  0  0  0  0  0  0  0
    1.9876    2.8985    0.7410 H   0  0  0  0  0  0  0  0  0  0  0  0
  1  2  2  0
  2  3  1  0
  2  4  1  0
  4  5  2  0
  5  6  1  0
  6  7  1  0
  6  8  2  0
  8  9  1  0
  8 10  1  0
 10 11  2  0
 11 12  1  0
 12 13  2  0
 12 14  1  0
 11  4  1  0
  3 15  1  0
  5 16  1  0
 10 17  1  0
 14 18  1  0
M  END
