
     RDKit          3D

 11 11  0  0  0  0  0  0  0  0999 V2000
   -1.5401    2.0358    0.0056 O   0  0  0  0  0  0  0  0  0  0  0  0
   -0.9045    0.9854   -0.0026 C   0  0  0  0  0  0  0  0  0  0  0  0
   -1.5489   -0.2262   -0.0579 N   0  0  0  0  0  0  0  0  0  0  0  0
   -0.9534   -1.4483   -0.0722 N   0  0  0  0  0  0  0  0  0  0  0  0
    0.3391   -1.4453   -0.0291 C   0  0  0  0  0  0  0  0  0  0  0  0
    1.2041   -0.2486    0.0331 C   0  0  0  0  0  0  0  0  0  0  0  0
    3.0417   -0.5525    0.0858 Br  0  0  0  0  0  0  0  0  0  0  0  0
    0.5888    0.9419    0.0459 C   0  0  0  0  0  0  0  0  0  0  0  0
    1.4808    2.5889    0.1216 Br  0  0  0  0  0  0  0  0  0  0  0  0
   -2.5646   -0.2116   -0.0913 H   0  0  0  0  0  0  0  0  0  0  0  0
    0.8569   -2.4193   -0.0390 H   0  0  0  0  0  0  0  0  0  0  0  0
  1  2  2  0
  2  3  1  0
  3  4  1  0
  4  5  2  0
  5  6  1  0
  6  7  1  0
  6  8  2  0
  8  9  1  0
  8  2  1  0
  3 10  1  0
  5 11  1  0
M  END
