
     RDKit          3D

 15 15  0  0  0  0  0  0  0  0999 V2000
   -2.2718    0.2646    0.0644 C   0  0  0  0  0  0  0  0  0  0  0  0
   -0.7861    0.0805   -0.0000 C   0  0  0  0  0  0  0  0  0  0  0  0
    0.0763    1.1833   -0.0529 C   0  0  0  0  0  0  0  0  0  0  0  0
    1.4660    1.0001   -0.0843 C   0  0  0  0  0  0  0  0  0  0  0  0
    2.5424    2.5632   -0.1649 Br  0  0  0  0  0  0  0  0  0  0  0  0
    2.0004   -0.2941   -0.0531 C   0  0  0  0  0  0  0  0  0  0  0  0
    3.8659   -0.6475   -0.0914 Br  0  0  0  0  0  0  0  0  0  0  0  0
    1.1449   -1.3960    0.0132 C   0  0  0  0  0  0  0  0  0  0  0  0
   -0.2319   -1.1999    0.0436 C   0  0  0  0  0  0  0  0  0  0  0  0
   -1.0345   -2.2708    0.1171 F   0  0  0  0  0  0  0  0  0  0  0  0
   -2.6153    0.1803    1.1001 H   0  0  0  0  0  0  0  0  0  0  0  0
   -2.5655    1.2464   -0.3215 H   0  0  0  0  0  0  0  0  0  0  0  0
   -2.7823   -0.4889   -0.5445 H   0  0  0  0  0  0  0  0  0  0  0  0
   -0.3390    2.1895   -0.0703 H   0  0  0  0  0  0  0  0  0  0  0  0
    1.5304   -2.4107    0.0445 H   0  0  0  0  0  0  0  0  0  0  0  0
  1  2  1  0
  2  3  2  0
  3  4  1  0
  4  5  1  0
  4  6  2  0
  6  7  1  0
  6  8  1  0
  8  9  2  0
  9 10  1  0
  9  2  1  0
  1 11  1  0
  1 12  1  0
  1 13  1  0
  3 14  1  0
  8 15  1  0
M  END
