
     RDKit          3D

 17 17  0  0  0  0  0  0  0  0999 V2000
   -1.6718   -0.7956   -1.1977 C   0  0  0  0  0  0  0  0  0  0  0  0
   -0.4527   -0.4259   -0.3969 C   0  0  0  0  0  0  0  0  0  0  0  0
    0.5631   -1.3824   -0.2216 C   0  0  0  0  0  0  0  0  0  0  0  0
    1.7307   -1.0719    0.4822 C   0  0  0  0  0  0  0  0  0  0  0  0
    3.0327   -2.4435    0.6551 Br  0  0  0  0  0  0  0  0  0  0  0  0
    1.8972    0.2101    1.0053 C   0  0  0  0  0  0  0  0  0  0  0  0
    3.4569    0.7541    1.9439 Br  0  0  0  0  0  0  0  0  0  0  0  0
    0.8862    1.1635    0.8375 C   0  0  0  0  0  0  0  0  0  0  0  0
   -0.3131    0.8453    0.1861 C   0  0  0  0  0  0  0  0  0  0  0  0
   -1.2435    1.8669   -0.0534 N   0  0  0  0  0  0  0  0  0  0  0  0
   -1.8039   -0.1015   -2.0340 H   0  0  0  0  0  0  0  0  0  0  0  0
   -1.5876   -1.8028   -1.6195 H   0  0  0  0  0  0  0  0  0  0  0  0
   -2.5622   -0.7758   -0.5612 H   0  0  0  0  0  0  0  0  0  0  0  0
    0.4438   -2.3751   -0.6517 H   0  0  0  0  0  0  0  0  0  0  0  0
    1.0316    2.1707    1.2212 H   0  0  0  0  0  0  0  0  0  0  0  0
   -1.2173    2.6215    0.6259 H   0  0  0  0  0  0  0  0  0  0  0  0
   -2.1901    1.5423   -0.2211 H   0  0  0  0  0  0  0  0  0  0  0  0
  1  2  1  0
  2  3  2  0
  3  4  1  0
  4  5  1  0
  4  6  2  0
  6  7  1  0
  6  8  1  0
  8  9  2  0
  9 10  1  0
  9  2  1  0
  1 11  1  0
  1 12  1  0
  1 13  1  0
  3 14  1  0
  8 15  1  0
 10 16  1  0
 10 17  1  0
M  END
