
     RDKit          3D

 12 12  0  0  0  0  0  0  0  0999 V2000
   -1.9669   -0.3033    0.1692 C   0  0  0  0  0  0  0  0  0  0  0  0
   -0.4880   -0.2363    0.1151 C   0  0  0  0  0  0  0  0  0  0  0  0
    0.3616   -1.1584    0.5203 N   0  0  0  0  0  0  0  0  0  0  0  0
    1.6124   -0.6481    0.2686 C   0  0  0  0  0  0  0  0  0  0  0  0
    3.1848   -1.6006    0.6760 Br  0  0  0  0  0  0  0  0  0  0  0  0
    1.5174    0.5988   -0.2962 C   0  0  0  0  0  0  0  0  0  0  0  0
    2.8934    1.7726   -0.8512 Br  0  0  0  0  0  0  0  0  0  0  0  0
    0.1795    0.8522   -0.3899 N   0  0  0  0  0  0  0  0  0  0  0  0
   -2.3670    0.5098    0.7826 H   0  0  0  0  0  0  0  0  0  0  0  0
   -2.2936   -1.2523    0.6054 H   0  0  0  0  0  0  0  0  0  0  0  0
   -2.3929   -0.2252   -0.8358 H   0  0  0  0  0  0  0  0  0  0  0  0
   -0.2407    1.6909   -0.7641 H   0  0  0  0  0  0  0  0  0  0  0  0
  1  2  1  0
  2  3  2  0
  3  4  1  0
  4  5  1  0
  4  6  2  0
  6  7  1  0
  6  8  1  0
  8  2  1  0
  1  9  1  0
  1 10  1  0
  1 11  1  0
  8 12  1  0
M  END
