
     RDKit          3D

 21 22  0  0  0  0  0  0  0  0999 V2000
    0.9980    1.7728    1.5623 O   0  0  0  0  0  0  0  0  0  0  0  0
    1.4729    0.9341    0.7964 C   0  0  0  0  0  0  0  0  0  0  0  0
    2.9723    0.8515    0.6800 C   0  0  0  0  0  0  0  0  0  0  0  0
    3.9664    2.0565    1.7329 Br  0  0  0  0  0  0  0  0  0  0  0  0
    3.5430   -0.0402   -0.1361 C   0  0  0  0  0  0  0  0  0  0  0  0
    5.3640   -0.3025   -0.4228 Br  0  0  0  0  0  0  0  0  0  0  0  0
    2.6270   -0.9040   -0.8852 C   0  0  0  0  0  0  0  0  0  0  0  0
    1.3406   -0.8835   -0.8305 N   0  0  0  0  0  0  0  0  0  0  0  0
    0.7358    0.0322    0.0080 N   0  0  0  0  0  0  0  0  0  0  0  0
   -0.7087   -0.0427   -0.0183 C   0  0  0  0  0  0  0  0  0  0  0  0
   -1.5402    0.7865    0.7492 C   0  0  0  0  0  0  0  0  0  0  0  0
   -2.9377    0.6800    0.6932 C   0  0  0  0  0  0  0  0  0  0  0  0
   -3.5400   -0.2605   -0.1337 C   0  0  0  0  0  0  0  0  0  0  0  0
   -2.7450   -1.0964   -0.9061 C   0  0  0  0  0  0  0  0  0  0  0  0
   -1.3504   -0.9870   -0.8474 C   0  0  0  0  0  0  0  0  0  0  0  0
    3.0966   -1.6403   -1.5592 H   0  0  0  0  0  0  0  0  0  0  0  0
   -1.1474    1.5441    1.4179 H   0  0  0  0  0  0  0  0  0  0  0  0
   -3.5508    1.3398    1.3025 H   0  0  0  0  0  0  0  0  0  0  0  0
   -4.6227   -0.3404   -0.1748 H   0  0  0  0  0  0  0  0  0  0  0  0
   -3.2025   -1.8365   -1.5573 H   0  0  0  0  0  0  0  0  0  0  0  0
   -0.7711   -1.6637   -1.4710 H   0  0  0  0  0  0  0  0  0  0  0  0
  1  2  2  0
  2  3  1  0
  3  4  1  0
  3  5  2  0
  5  6  1  0
  5  7  1  0
  7  8  2  0
  8  9  1  0
  9 10  1  0
 10 11  2  0
 11 12  1  0
 12 13  2  0
 13 14  1  0
 14 15  2  0
  9  2  1  0
 15 10  1  0
  7 16  1  0
 11 17  1  0
 12 18  1  0
 13 19  1  0
 14 20  1  0
 15 21  1  0
M  END
