
     RDKit          3D

 21 21  0  0  0  0  0  0  0  0999 V2000
   -1.2733   -1.1731    0.8978 C   0  0  0  0  0  0  0  0  0  0  0  0
   -0.8330   -0.1235   -0.1375 C   0  0  0  0  0  0  0  0  0  0  0  0
   -1.2903   -0.5904   -1.5328 C   0  0  0  0  0  0  0  0  0  0  0  0
   -1.5089    1.2235    0.1730 C   0  0  0  0  0  0  0  0  0  0  0  0
    0.6724    0.0333   -0.1085 C   0  0  0  0  0  0  0  0  0  0  0  0
    1.5125   -0.1850   -1.1034 N   0  0  0  0  0  0  0  0  0  0  0  0
    2.7650    0.0871   -0.6107 C   0  0  0  0  0  0  0  0  0  0  0  0
    4.3155   -0.0795   -1.6654 Br  0  0  0  0  0  0  0  0  0  0  0  0
    2.6889    0.4765    0.7015 C   0  0  0  0  0  0  0  0  0  0  0  0
    4.0755    0.9720    1.8891 Br  0  0  0  0  0  0  0  0  0  0  0  0
    1.3612    0.4401    1.0126 N   0  0  0  0  0  0  0  0  0  0  0  0
   -2.3579   -1.3280    0.8674 H   0  0  0  0  0  0  0  0  0  0  0  0
   -0.7917   -2.1404    0.7122 H   0  0  0  0  0  0  0  0  0  0  0  0
   -1.0138   -0.8689    1.9185 H   0  0  0  0  0  0  0  0  0  0  0  0
   -2.3791   -0.7099   -1.5741 H   0  0  0  0  0  0  0  0  0  0  0  0
   -0.8408   -1.5545   -1.7991 H   0  0  0  0  0  0  0  0  0  0  0  0
   -1.0064    0.1305   -2.3087 H   0  0  0  0  0  0  0  0  0  0  0  0
   -1.2547    1.5822    1.1772 H   0  0  0  0  0  0  0  0  0  0  0  0
   -1.1984    1.9972   -0.5392 H   0  0  0  0  0  0  0  0  0  0  0  0
   -2.6004    1.1396    0.1211 H   0  0  0  0  0  0  0  0  0  0  0  0
    0.9577    0.6715    1.9088 H   0  0  0  0  0  0  0  0  0  0  0  0
  1  2  1  0
  2  3  1  0
  2  4  1  0
  2  5  1  0
  5  6  2  0
  6  7  1  0
  7  8  1  0
  7  9  2  0
  9 10  1  0
  9 11  1  0
 11  5  1  0
  1 12  1  0
  1 13  1  0
  1 14  1  0
  3 15  1  0
  3 16  1  0
  3 17  1  0
  4 18  1  0
  4 19  1  0
  4 20  1  0
 11 21  1  0
M  END
