
     RDKit          3D

 12 12  0  0  0  0  0  0  0  0999 V2000
   -2.4390   -0.9385    0.2261 O   0  0  0  0  0  0  0  0  0  0  0  0
   -1.6246   -0.0286    0.2297 C   0  0  0  0  0  0  0  0  0  0  0  0
   -2.0075    1.2395    0.4529 O   0  0  0  0  0  0  0  0  0  0  0  0
   -0.2215   -0.1585    0.0108 C   0  0  0  0  0  0  0  0  0  0  0  0
    0.3345   -1.3894   -0.2323 N   0  0  0  0  0  0  0  0  0  0  0  0
    1.6639   -1.3724   -0.4212 N   0  0  0  0  0  0  0  0  0  0  0  0
    1.9743   -0.0808   -0.2945 C   0  0  0  0  0  0  0  0  0  0  0  0
    3.7452    0.5351   -0.4674 Br  0  0  0  0  0  0  0  0  0  0  0  0
    0.8459    0.7154   -0.0267 C   0  0  0  0  0  0  0  0  0  0  0  0
    0.8580    2.5761    0.2183 Br  0  0  0  0  0  0  0  0  0  0  0  0
   -2.9758    1.1822    0.5845 H   0  0  0  0  0  0  0  0  0  0  0  0
   -0.1533   -2.2801   -0.2803 H   0  0  0  0  0  0  0  0  0  0  0  0
  1  2  2  0
  2  3  1  0
  2  4  1  0
  4  5  1  0
  5  6  1  0
  6  7  2  0
  7  8  1  0
  7  9  1  0
  9 10  1  0
  9  4  2  0
  3 11  1  0
  5 12  1  0
M  END
