
     RDKit          3D

 11 11  0  0  0  0  0  0  0  0999 V2000
   -2.8293    1.2107    0.0817 O   0  0  0  0  0  0  0  0  0  0  0  0
   -2.1679    0.1777    0.0257 C   0  0  0  0  0  0  0  0  0  0  0  0
   -0.7298    0.0941    0.0103 C   0  0  0  0  0  0  0  0  0  0  0  0
    0.1220   -0.9928   -0.0498 C   0  0  0  0  0  0  0  0  0  0  0  0
    1.4298   -0.4627   -0.0340 C   0  0  0  0  0  0  0  0  0  0  0  0
    2.9730   -1.5232   -0.0982 Br  0  0  0  0  0  0  0  0  0  0  0  0
    1.3187    0.9043    0.0341 C   0  0  0  0  0  0  0  0  0  0  0  0
    2.7384    2.1711    0.0852 Br  0  0  0  0  0  0  0  0  0  0  0  0
   -0.0001    1.2499    0.0614 O   0  0  0  0  0  0  0  0  0  0  0  0
   -2.6850   -0.7962   -0.0181 H   0  0  0  0  0  0  0  0  0  0  0  0
   -0.1697   -2.0329   -0.0986 H   0  0  0  0  0  0  0  0  0  0  0  0
  1  2  2  0
  2  3  1  0
  3  4  2  0
  4  5  1  0
  5  6  1  0
  5  7  2  0
  7  8  1  0
  7  9  1  0
  9  3  1  0
  2 10  1  0
  4 11  1  0
M  END
