
     RDKit          3D

 16 16  0  0  0  0  0  0  0  0999 V2000
   -1.6826    1.4461   -0.5230 N   0  0  0  0  0  0  0  0  0  0  0  0
   -0.5154    0.6831   -0.2972 C   0  0  0  0  0  0  0  0  0  0  0  0
    0.7449    1.2642   -0.4540 C   0  0  0  0  0  0  0  0  0  0  0  0
    1.9032    0.5223   -0.1973 C   0  0  0  0  0  0  0  0  0  0  0  0
    3.5689    1.3888   -0.4884 Br  0  0  0  0  0  0  0  0  0  0  0  0
    1.7982   -0.8011    0.2425 C   0  0  0  0  0  0  0  0  0  0  0  0
    3.3077   -1.9068    0.5723 Br  0  0  0  0  0  0  0  0  0  0  0  0
    0.5359   -1.3607    0.4697 C   0  0  0  0  0  0  0  0  0  0  0  0
   -0.6190   -0.5977    0.2834 C   0  0  0  0  0  0  0  0  0  0  0  0
   -1.8924   -1.1769    0.4793 N   0  0  0  0  0  0  0  0  0  0  0  0
   -2.4431    0.8337   -0.8152 H   0  0  0  0  0  0  0  0  0  0  0  0
   -1.5406    2.1916   -1.1984 H   0  0  0  0  0  0  0  0  0  0  0  0
    0.8231    2.2910   -0.8010 H   0  0  0  0  0  0  0  0  0  0  0  0
    0.4510   -2.3870    0.8166 H   0  0  0  0  0  0  0  0  0  0  0  0
   -1.8802   -1.9339    1.1566 H   0  0  0  0  0  0  0  0  0  0  0  0
   -2.5595   -0.4569    0.7541 H   0  0  0  0  0  0  0  0  0  0  0  0
  1  2  1  0
  2  3  2  0
  3  4  1  0
  4  5  1  0
  4  6  2  0
  6  7  1  0
  6  8  1  0
  8  9  2  0
  9 10  1  0
  9  2  1  0
  1 11  1  0
  1 12  1  0
  3 13  1  0
  8 14  1  0
 10 15  1  0
 10 16  1  0
M  END
