
     RDKit          3D

 16 16  0  0  0  0  0  0  0  0999 V2000
   -1.7062    1.4016   -0.3741 N   0  0  0  0  0  0  0  0  0  0  0  0
   -0.5279    0.6447   -0.2186 C   0  0  0  0  0  0  0  0  0  0  0  0
    0.6978    1.1717   -0.6355 C   0  0  0  0  0  0  0  0  0  0  0  0
    1.8840    0.4507   -0.4514 C   0  0  0  0  0  0  0  0  0  0  0  0
    3.4858    1.2391   -1.1021 Br  0  0  0  0  0  0  0  0  0  0  0  0
    1.8494   -0.7963    0.1793 C   0  0  0  0  0  0  0  0  0  0  0  0
    3.3935   -1.8715    0.4391 Br  0  0  0  0  0  0  0  0  0  0  0  0
    0.6352   -1.2946    0.6605 C   0  0  0  0  0  0  0  0  0  0  0  0
   -0.5372   -0.5455    0.5358 C   0  0  0  0  0  0  0  0  0  0  0  0
   -1.7527   -1.1004    0.9950 N   0  0  0  0  0  0  0  0  0  0  0  0
   -2.5328    0.8192   -0.4570 H   0  0  0  0  0  0  0  0  0  0  0  0
   -1.6535    2.0793   -1.1293 H   0  0  0  0  0  0  0  0  0  0  0  0
    0.7259    2.1413   -1.1258 H   0  0  0  0  0  0  0  0  0  0  0  0
    0.5975   -2.2528    1.1732 H   0  0  0  0  0  0  0  0  0  0  0  0
   -2.1465   -1.7318    0.3019 H   0  0  0  0  0  0  0  0  0  0  0  0
   -2.4124   -0.3546    1.2089 H   0  0  0  0  0  0  0  0  0  0  0  0
  1  2  1  0
  2  3  2  0
  3  4  1  0
  4  5  1  0
  4  6  2  0
  6  7  1  0
  6  8  1  0
  8  9  2  0
  9 10  1  0
  9  2  1  0
  1 11  1  0
  1 12  1  0
  3 13  1  0
  8 14  1  0
 10 15  1  0
 10 16  1  0
M  END
