
     RDKit          3D

 18 18  0  0  0  0  0  0  0  0999 V2000
    2.5673   -1.2031   -1.3292 O   0  0  0  0  0  0  0  0  0  0  0  0
    1.9903   -0.5824   -0.4588 C   0  0  0  0  0  0  0  0  0  0  0  0
    2.6332    0.0634    0.5272 O   0  0  0  0  0  0  0  0  0  0  0  0
    0.5350   -0.5486   -0.2474 C   0  0  0  0  0  0  0  0  0  0  0  0
   -0.1405   -1.7769   -0.2800 C   0  0  0  0  0  0  0  0  0  0  0  0
   -1.5155   -1.8304   -0.0306 C   0  0  0  0  0  0  0  0  0  0  0  0
   -2.3382   -3.5409   -0.0819 Br  0  0  0  0  0  0  0  0  0  0  0  0
   -2.2190   -0.6520    0.2459 C   0  0  0  0  0  0  0  0  0  0  0  0
   -4.0850   -0.6190    0.5987 Br  0  0  0  0  0  0  0  0  0  0  0  0
   -1.5469    0.5763    0.2579 C   0  0  0  0  0  0  0  0  0  0  0  0
   -0.1674    0.6343    0.0042 C   0  0  0  0  0  0  0  0  0  0  0  0
    0.5008    1.9501   -0.0795 C   0  0  0  0  0  0  0  0  0  0  0  0
    1.3996    2.2590   -0.8362 O   0  0  0  0  0  0  0  0  0  0  0  0
   -0.0202    2.8235    0.7998 O   0  0  0  0  0  0  0  0  0  0  0  0
    3.5807    0.0001    0.2818 H   0  0  0  0  0  0  0  0  0  0  0  0
    0.4173   -2.6889   -0.4897 H   0  0  0  0  0  0  0  0  0  0  0  0
   -2.0992    1.4952    0.4483 H   0  0  0  0  0  0  0  0  0  0  0  0
    0.5076    3.6402    0.6693 H   0  0  0  0  0  0  0  0  0  0  0  0
  1  2  2  0
  2  3  1  0
  2  4  1  0
  4  5  2  0
  5  6  1  0
  6  7  1  0
  6  8  2  0
  8  9  1  0
  8 10  1  0
 10 11  2  0
 11 12  1  0
 12 13  2  0
 12 14  1  0
 11  4  1  0
  3 15  1  0
  5 16  1  0
 10 17  1  0
 14 18  1  0
M  END
