
     RDKit          3D

 12 12  0  0  0  0  0  0  0  0999 V2000
   -2.6683    0.7391   -1.0833 O   0  0  0  0  0  0  0  0  0  0  0  0
   -1.9327    0.2076   -0.2649 C   0  0  0  0  0  0  0  0  0  0  0  0
   -2.4678   -0.4470    0.7912 O   0  0  0  0  0  0  0  0  0  0  0  0
   -0.4909    0.1601   -0.2375 C   0  0  0  0  0  0  0  0  0  0  0  0
    0.3528   -0.4386    0.6839 C   0  0  0  0  0  0  0  0  0  0  0  0
    1.7221   -0.2571    0.3504 C   0  0  0  0  0  0  0  0  0  0  0  0
    3.0811   -0.9772    1.4472 Br  0  0  0  0  0  0  0  0  0  0  0  0
    1.8846    0.4657   -0.8014 C   0  0  0  0  0  0  0  0  0  0  0  0
    3.5584    0.9354   -1.6021 Br  0  0  0  0  0  0  0  0  0  0  0  0
    0.4010    0.9291   -1.4869 S   0  0  0  0  0  0  0  0  0  0  0  0
   -3.4315   -0.3387    0.6515 H   0  0  0  0  0  0  0  0  0  0  0  0
   -0.0088   -0.9784    1.5520 H   0  0  0  0  0  0  0  0  0  0  0  0
  1  2  2  0
  2  3  1  0
  2  4  1  0
  4  5  2  0
  5  6  1  0
  6  7  1  0
  6  8  2  0
  8  9  1  0
  8 10  1  0
 10  4  1  0
  3 11  1  0
  5 12  1  0
M  END
