
     RDKit          3D

 26 26  0  0  0  0  0  0  0  0999 V2000
   -2.6512   -2.4576   -0.0872 C   0  0  0  0  0  0  0  0  0  0  0  0
   -2.4344   -0.9853    0.2125 C   0  0  0  0  0  0  0  0  0  0  0  0
   -1.0403   -0.7129    0.0884 O   0  0  0  0  0  0  0  0  0  0  0  0
   -0.6260    0.5831    0.2394 C   0  0  0  0  0  0  0  0  0  0  0  0
   -1.4389    1.6450    0.6433 C   0  0  0  0  0  0  0  0  0  0  0  0
   -0.9103    2.9399    0.7735 C   0  0  0  0  0  0  0  0  0  0  0  0
   -2.1140    4.3029    1.3319 Br  0  0  0  0  0  0  0  0  0  0  0  0
    0.4394    3.1844    0.4991 C   0  0  0  0  0  0  0  0  0  0  0  0
    1.2268    4.9068    0.6481 Br  0  0  0  0  0  0  0  0  0  0  0  0
    1.2492    2.1222    0.0982 C   0  0  0  0  0  0  0  0  0  0  0  0
    2.5480    2.3291   -0.1770 F   0  0  0  0  0  0  0  0  0  0  0  0
    0.7284    0.8314   -0.0178 C   0  0  0  0  0  0  0  0  0  0  0  0
    1.5335   -0.1892   -0.4625 O   0  0  0  0  0  0  0  0  0  0  0  0
    2.3155   -0.7135    0.6159 C   0  0  0  0  0  0  0  0  0  0  0  0
    3.0666   -1.9279    0.1023 C   0  0  0  0  0  0  0  0  0  0  0  0
   -2.0755   -3.0808    0.6051 H   0  0  0  0  0  0  0  0  0  0  0  0
   -3.7093   -2.7210   -0.0034 H   0  0  0  0  0  0  0  0  0  0  0  0
   -2.3051   -2.7003   -1.0974 H   0  0  0  0  0  0  0  0  0  0  0  0
   -2.7708   -0.7750    1.2341 H   0  0  0  0  0  0  0  0  0  0  0  0
   -3.0069   -0.3854   -0.5043 H   0  0  0  0  0  0  0  0  0  0  0  0
   -2.4904    1.4888    0.8649 H   0  0  0  0  0  0  0  0  0  0  0  0
    1.6701   -1.0125    1.4512 H   0  0  0  0  0  0  0  0  0  0  0  0
    3.0342    0.0370    0.9651 H   0  0  0  0  0  0  0  0  0  0  0  0
    3.6836   -2.3672    0.8911 H   0  0  0  0  0  0  0  0  0  0  0  0
    2.3671   -2.6869   -0.2636 H   0  0  0  0  0  0  0  0  0  0  0  0
    3.7107   -1.6549   -0.7401 H   0  0  0  0  0  0  0  0  0  0  0  0
  1  2  1  0
  2  3  1  0
  3  4  1  0
  4  5  2  0
  5  6  1  0
  6  7  1  0
  6  8  2  0
  8  9  1  0
  8 10  1  0
 10 11  1  0
 10 12  2  0
 12 13  1  0
 13 14  1  0
 14 15  1  0
 12  4  1  0
  1 16  1  0
  1 17  1  0
  1 18  1  0
  2 19  1  0
  2 20  1  0
  5 21  1  0
 14 22  1  0
 14 23  1  0
 15 24  1  0
 15 25  1  0
 15 26  1  0
M  END
