
     RDKit          3D

 15 15  0  0  0  0  0  0  0  0999 V2000
   -2.0833   -2.5139    0.2969 O   0  0  0  0  0  0  0  0  0  0  0  0
   -2.0246   -1.2919    0.2156 C   0  0  0  0  0  0  0  0  0  0  0  0
   -0.7332   -0.5871    0.0856 C   0  0  0  0  0  0  0  0  0  0  0  0
    0.4542   -1.3278    0.0542 C   0  0  0  0  0  0  0  0  0  0  0  0
    1.6845   -0.6745   -0.0684 C   0  0  0  0  0  0  0  0  0  0  0  0
    3.2428   -1.7594   -0.1025 Br  0  0  0  0  0  0  0  0  0  0  0  0
    1.7245    0.7227   -0.1597 C   0  0  0  0  0  0  0  0  0  0  0  0
    3.3436    1.7029   -0.3287 Br  0  0  0  0  0  0  0  0  0  0  0  0
    0.5346    1.4624   -0.1280 C   0  0  0  0  0  0  0  0  0  0  0  0
   -0.6898    0.8056   -0.0055 C   0  0  0  0  0  0  0  0  0  0  0  0
   -1.8497    1.5268    0.0253 O   0  0  0  0  0  0  0  0  0  0  0  0
   -2.9380   -0.6751    0.2368 H   0  0  0  0  0  0  0  0  0  0  0  0
    0.4114   -2.4137    0.1259 H   0  0  0  0  0  0  0  0  0  0  0  0
    0.5735    2.5461   -0.1993 H   0  0  0  0  0  0  0  0  0  0  0  0
   -1.6506    2.4768   -0.0481 H   0  0  0  0  0  0  0  0  0  0  0  0
  1  2  2  0
  2  3  1  0
  3  4  2  0
  4  5  1  0
  5  6  1  0
  5  7  2  0
  7  8  1  0
  7  9  1  0
  9 10  2  0
 10 11  1  0
 10  3  1  0
  2 12  1  0
  4 13  1  0
  9 14  1  0
 11 15  1  0
M  END
