
     RDKit          3D

 15 15  0  0  0  0  0  0  0  0999 V2000
   -0.0660    1.7299   -0.7108 C   0  0  0  0  0  0  0  0  0  0  0  0
    0.4237    0.4255   -0.1534 C   0  0  0  0  0  0  0  0  0  0  0  0
   -0.4302   -0.6132    0.2298 C   0  0  0  0  0  0  0  0  0  0  0  0
   -1.8816   -0.6307    0.1661 C   0  0  0  0  0  0  0  0  0  0  0  0
   -2.6168    0.2612   -0.2346 O   0  0  0  0  0  0  0  0  0  0  0  0
   -2.4286   -1.7842    0.6112 O   0  0  0  0  0  0  0  0  0  0  0  0
    0.4432   -1.9665    0.8259 S   0  0  0  0  0  0  0  0  0  0  0  0
    1.9318   -1.2025    0.5861 C   0  0  0  0  0  0  0  0  0  0  0  0
    3.5829   -2.0720    1.0224 Br  0  0  0  0  0  0  0  0  0  0  0  0
    1.7972    0.0576    0.0642 C   0  0  0  0  0  0  0  0  0  0  0  0
    3.2430    1.2201   -0.3407 Br  0  0  0  0  0  0  0  0  0  0  0  0
    0.7419    2.4228   -0.9547 H   0  0  0  0  0  0  0  0  0  0  0  0
   -0.7153    2.2309    0.0151 H   0  0  0  0  0  0  0  0  0  0  0  0
   -0.6349    1.5578   -1.6306 H   0  0  0  0  0  0  0  0  0  0  0  0
   -3.3902   -1.6367    0.5039 H   0  0  0  0  0  0  0  0  0  0  0  0
  1  2  1  0
  2  3  2  0
  3  4  1  0
  4  5  2  0
  4  6  1  0
  3  7  1  0
  7  8  1  0
  8  9  1  0
  8 10  2  0
 10 11  1  0
 10  2  1  0
  1 12  1  0
  1 13  1  0
  1 14  1  0
  6 15  1  0
M  END
