
     RDKit          3D

 21 23  0  0  0  0  0  0  0  0999 V2000
   -2.8138    3.0880   -0.9579 Br  0  0  0  0  0  0  0  0  0  0  0  0
   -2.3868    1.3494   -0.3689 C   0  0  0  0  0  0  0  0  0  0  0  0
   -3.3983    0.4518   -0.0118 C   0  0  0  0  0  0  0  0  0  0  0  0
   -3.0893   -0.8384    0.4256 C   0  0  0  0  0  0  0  0  0  0  0  0
   -1.7581   -1.2687    0.5188 C   0  0  0  0  0  0  0  0  0  0  0  0
   -0.7258   -0.3784    0.1634 C   0  0  0  0  0  0  0  0  0  0  0  0
   -1.0697    0.9001   -0.2685 C   0  0  0  0  0  0  0  0  0  0  0  0
    0.0531    1.6139   -0.5661 O   0  0  0  0  0  0  0  0  0  0  0  0
    1.1258    0.8063   -0.3301 C   0  0  0  0  0  0  0  0  0  0  0  0
    2.4687    1.1420   -0.5050 C   0  0  0  0  0  0  0  0  0  0  0  0
    3.0087    2.8392   -1.1212 Br  0  0  0  0  0  0  0  0  0  0  0  0
    3.4184    0.1606   -0.2030 C   0  0  0  0  0  0  0  0  0  0  0  0
    3.0256   -1.0997    0.2542 C   0  0  0  0  0  0  0  0  0  0  0  0
    1.6699   -1.4151    0.4227 C   0  0  0  0  0  0  0  0  0  0  0  0
    0.6989   -0.4393    0.1234 C   0  0  0  0  0  0  0  0  0  0  0  0
   -4.4413    0.7555   -0.0731 H   0  0  0  0  0  0  0  0  0  0  0  0
   -3.8928   -1.5202    0.6983 H   0  0  0  0  0  0  0  0  0  0  0  0
   -1.5308   -2.2746    0.8604 H   0  0  0  0  0  0  0  0  0  0  0  0
    4.4785    0.3745   -0.3232 H   0  0  0  0  0  0  0  0  0  0  0  0
    3.7820   -1.8481    0.4831 H   0  0  0  0  0  0  0  0  0  0  0  0
    1.3771   -2.3988    0.7789 H   0  0  0  0  0  0  0  0  0  0  0  0
  1  2  1  0
  2  3  2  0
  3  4  1  0
  4  5  2  0
  5  6  1  0
  6  7  2  0
  7  8  1  0
  8  9  1  0
  9 10  2  0
 10 11  1  0
 10 12  1  0
 12 13  2  0
 13 14  1  0
 14 15  2  0
  7  2  1  0
 15  9  1  0
 15  6  1  0
  3 16  1  0
  4 17  1  0
  5 18  1  0
 12 19  1  0
 13 20  1  0
 14 21  1  0
M  END
