
     RDKit          3D

 18 19  0  0  0  0  0  0  0  0999 V2000
   -1.4888   -2.5641    0.3617 O   0  0  0  0  0  0  0  0  0  0  0  0
   -1.2947   -1.3803    0.1530 C   0  0  0  0  0  0  0  0  0  0  0  0
   -2.3427   -0.3372   -0.1340 C   0  0  0  0  0  0  0  0  0  0  0  0
   -1.5617    0.9745   -0.3174 C   0  0  0  0  0  0  0  0  0  0  0  0
   -0.1260    0.5948   -0.1238 C   0  0  0  0  0  0  0  0  0  0  0  0
    1.0043    1.3956   -0.1805 C   0  0  0  0  0  0  0  0  0  0  0  0
    0.8835    3.2460   -0.5426 Br  0  0  0  0  0  0  0  0  0  0  0  0
    2.2624    0.8208    0.0352 C   0  0  0  0  0  0  0  0  0  0  0  0
    2.3744   -0.5523    0.3058 C   0  0  0  0  0  0  0  0  0  0  0  0
    4.0845   -1.3065    0.5939 Br  0  0  0  0  0  0  0  0  0  0  0  0
    1.2471   -1.3664    0.3653 C   0  0  0  0  0  0  0  0  0  0  0  0
    0.0223   -0.7613    0.1467 C   0  0  0  0  0  0  0  0  0  0  0  0
   -2.8887   -0.5999   -1.0450 H   0  0  0  0  0  0  0  0  0  0  0  0
   -3.0369   -0.2664    0.7086 H   0  0  0  0  0  0  0  0  0  0  0  0
   -1.7292    1.3811   -1.3203 H   0  0  0  0  0  0  0  0  0  0  0  0
   -1.8770    1.7134    0.4267 H   0  0  0  0  0  0  0  0  0  0  0  0
    3.1571    1.4382   -0.0065 H   0  0  0  0  0  0  0  0  0  0  0  0
    1.3101   -2.4300    0.5729 H   0  0  0  0  0  0  0  0  0  0  0  0
  1  2  2  0
  2  3  1  0
  3  4  1  0
  4  5  1  0
  5  6  2  0
  6  7  1  0
  6  8  1  0
  8  9  2  0
  9 10  1  0
  9 11  1  0
 11 12  2  0
 12  2  1  0
 12  5  1  0
  3 13  1  0
  3 14  1  0
  4 15  1  0
  4 16  1  0
  8 17  1  0
 11 18  1  0
M  END
