
     RDKit          3D

 12 12  0  0  0  0  0  0  0  0999 V2000
   -2.0480   -1.1247   -0.0079 N   0  0  0  0  0  0  0  0  0  0  0  0
   -0.7097   -0.6975   -0.0626 C   0  0  0  0  0  0  0  0  0  0  0  0
    0.2421   -1.6084   -0.3375 N   0  0  0  0  0  0  0  0  0  0  0  0
    1.5692   -1.2420   -0.4029 N   0  0  0  0  0  0  0  0  0  0  0  0
    1.9236    0.0381   -0.1905 C   0  0  0  0  0  0  0  0  0  0  0  0
    3.7555    0.4982   -0.2896 Br  0  0  0  0  0  0  0  0  0  0  0  0
    0.9908    1.0121    0.0948 C   0  0  0  0  0  0  0  0  0  0  0  0
   -0.3469    0.6319    0.1585 C   0  0  0  0  0  0  0  0  0  0  0  0
   -1.6438    1.9619    0.5505 Br  0  0  0  0  0  0  0  0  0  0  0  0
   -2.4304   -0.9096    0.9098 H   0  0  0  0  0  0  0  0  0  0  0  0
   -2.5946   -0.5994   -0.6860 H   0  0  0  0  0  0  0  0  0  0  0  0
    1.2922    2.0395    0.2634 H   0  0  0  0  0  0  0  0  0  0  0  0
  1  2  1  0
  2  3  2  0
  3  4  1  0
  4  5  2  0
  5  6  1  0
  5  7  1  0
  7  8  2  0
  8  9  1  0
  8  2  1  0
  1 10  1  0
  1 11  1  0
  7 12  1  0
M  END
