
     RDKit          3D

 17 17  0  0  0  0  0  0  0  0999 V2000
   -2.0954   -0.4877    0.4158 C   0  0  0  0  0  0  0  0  0  0  0  0
   -0.6166   -0.3647    0.1296 C   0  0  0  0  0  0  0  0  0  0  0  0
   -0.0099    0.9085    0.0076 C   0  0  0  0  0  0  0  0  0  0  0  0
   -0.7509    2.0853    0.2429 N   0  0  0  0  0  0  0  0  0  0  0  0
    1.3888    0.9822   -0.1613 C   0  0  0  0  0  0  0  0  0  0  0  0
    2.2803    2.6634   -0.2293 Br  0  0  0  0  0  0  0  0  0  0  0  0
    2.1635   -0.1646   -0.3196 C   0  0  0  0  0  0  0  0  0  0  0  0
    1.5546   -1.4171   -0.2894 C   0  0  0  0  0  0  0  0  0  0  0  0
    2.6876   -2.9246   -0.5473 Br  0  0  0  0  0  0  0  0  0  0  0  0
    0.1719   -1.5263   -0.0687 C   0  0  0  0  0  0  0  0  0  0  0  0
   -0.5827   -3.0939   -0.0492 Cl  0  0  0  0  0  0  0  0  0  0  0  0
   -2.6470   -0.6167   -0.5206 H   0  0  0  0  0  0  0  0  0  0  0  0
   -2.3073   -1.3305    1.0812 H   0  0  0  0  0  0  0  0  0  0  0  0
   -2.4926    0.3873    0.9385 H   0  0  0  0  0  0  0  0  0  0  0  0
   -0.2701    2.9252   -0.0747 H   0  0  0  0  0  0  0  0  0  0  0  0
   -1.7109    2.0544   -0.0842 H   0  0  0  0  0  0  0  0  0  0  0  0
    3.2368   -0.0800   -0.4713 H   0  0  0  0  0  0  0  0  0  0  0  0
  1  2  1  0
  2  3  2  0
  3  4  1  0
  3  5  1  0
  5  6  1  0
  5  7  2  0
  7  8  1  0
  8  9  1  0
  8 10  2  0
 10 11  1  0
 10  2  1  0
  1 12  1  0
  1 13  1  0
  1 14  1  0
  4 15  1  0
  4 16  1  0
  7 17  1  0
M  END
