
     RDKit          3D

 10 10  0  0  0  0  0  0  0  0999 V2000
    2.2114   -1.1873   -1.7887 Br  0  0  0  0  0  0  0  0  0  0  0  0
    0.8482   -0.3253   -0.7890 C   0  0  0  0  0  0  0  0  0  0  0  0
    0.3499   -0.9554    0.3244 C   0  0  0  0  0  0  0  0  0  0  0  0
   -0.6324   -0.2639    0.9891 C   0  0  0  0  0  0  0  0  0  0  0  0
   -1.3966   -1.0376    2.5441 Br  0  0  0  0  0  0  0  0  0  0  0  0
   -1.0937    0.9394    0.6058 N   0  0  0  0  0  0  0  0  0  0  0  0
   -0.5320    1.4527   -0.4932 C   0  0  0  0  0  0  0  0  0  0  0  0
    0.4287    0.8763   -1.2223 N   0  0  0  0  0  0  0  0  0  0  0  0
    0.7039   -1.9220    0.6526 H   0  0  0  0  0  0  0  0  0  0  0  0
   -0.8874    2.4232   -0.8227 H   0  0  0  0  0  0  0  0  0  0  0  0
  1  2  1  0
  2  3  2  0
  3  4  1  0
  4  5  1  0
  4  6  2  0
  6  7  1  0
  7  8  2  0
  8  2  1  0
  3  9  1  0
  7 10  1  0
M  END
