
     RDKit          3D

 17 18  0  0  0  0  0  0  0  0999 V2000
    3.9930    1.2692   -0.5330 Br  0  0  0  0  0  0  0  0  0  0  0  0
    2.2741    0.4857   -0.5114 C   0  0  0  0  0  0  0  0  0  0  0  0
    1.9944   -0.5904   -1.3394 C   0  0  0  0  0  0  0  0  0  0  0  0
    0.7193   -1.1595   -1.3129 C   0  0  0  0  0  0  0  0  0  0  0  0
   -0.2838   -0.6810   -0.4800 C   0  0  0  0  0  0  0  0  0  0  0  0
   -1.4796   -1.2901   -0.5212 N   0  0  0  0  0  0  0  0  0  0  0  0
   -2.4623   -0.8358    0.2821 C   0  0  0  0  0  0  0  0  0  0  0  0
   -2.3110    0.2233    1.1482 C   0  0  0  0  0  0  0  0  0  0  0  0
   -1.0710    0.8522    1.1884 C   0  0  0  0  0  0  0  0  0  0  0  0
   -0.8957    2.3132    2.3969 Br  0  0  0  0  0  0  0  0  0  0  0  0
   -0.0070    0.4148    0.3665 C   0  0  0  0  0  0  0  0  0  0  0  0
    1.2899    0.9897    0.3360 C   0  0  0  0  0  0  0  0  0  0  0  0
    2.7497   -0.9965   -2.0067 H   0  0  0  0  0  0  0  0  0  0  0  0
    0.5007   -2.0043   -1.9633 H   0  0  0  0  0  0  0  0  0  0  0  0
   -3.4064   -1.3680    0.2046 H   0  0  0  0  0  0  0  0  0  0  0  0
   -3.1391    0.5435    1.7701 H   0  0  0  0  0  0  0  0  0  0  0  0
    1.5348    1.8341    0.9752 H   0  0  0  0  0  0  0  0  0  0  0  0
  1  2  1  0
  2  3  2  0
  3  4  1  0
  4  5  2  0
  5  6  1  0
  6  7  2  0
  7  8  1  0
  8  9  2  0
  9 10  1  0
  9 11  1  0
 11 12  2  0
 12  2  1  0
 11  5  1  0
  3 13  1  0
  4 14  1  0
  7 15  1  0
  8 16  1  0
 12 17  1  0
M  END
