
     RDKit          3D

 16 17  0  0  0  0  0  0  0  0999 V2000
    3.6652   -1.7010    0.0049 Br  0  0  0  0  0  0  0  0  0  0  0  0
    2.0373   -0.7332    0.0052 C   0  0  0  0  0  0  0  0  0  0  0  0
    2.0718    0.6581    0.0214 C   0  0  0  0  0  0  0  0  0  0  0  0
    0.8765    1.3860    0.0218 C   0  0  0  0  0  0  0  0  0  0  0  0
    0.9535    3.2785    0.0441 Br  0  0  0  0  0  0  0  0  0  0  0  0
   -0.3622    0.7093    0.0057 C   0  0  0  0  0  0  0  0  0  0  0  0
   -1.7306    1.1099    0.0012 C   0  0  0  0  0  0  0  0  0  0  0  0
   -2.5063   -0.0262   -0.0171 C   0  0  0  0  0  0  0  0  0  0  0  0
   -1.6662   -1.1067   -0.0239 N   0  0  0  0  0  0  0  0  0  0  0  0
   -0.3539   -0.6885   -0.0103 C   0  0  0  0  0  0  0  0  0  0  0  0
    0.8298   -1.4382   -0.0110 C   0  0  0  0  0  0  0  0  0  0  0  0
    3.0246    1.1806    0.0338 H   0  0  0  0  0  0  0  0  0  0  0  0
   -2.1057    2.1254    0.0104 H   0  0  0  0  0  0  0  0  0  0  0  0
   -3.5802   -0.1570   -0.0258 H   0  0  0  0  0  0  0  0  0  0  0  0
   -1.9615   -2.0737   -0.0370 H   0  0  0  0  0  0  0  0  0  0  0  0
    0.8080   -2.5232   -0.0236 H   0  0  0  0  0  0  0  0  0  0  0  0
  1  2  1  0
  2  3  2  0
  3  4  1  0
  4  5  1  0
  4  6  2  0
  6  7  1  0
  7  8  2  0
  8  9  1  0
  9 10  1  0
 10 11  2  0
 11  2  1  0
 10  6  1  0
  3 12  1  0
  7 13  1  0
  8 14  1  0
  9 15  1  0
 11 16  1  0
M  END
