
     RDKit          3D

 17 17  0  0  0  0  0  0  0  0999 V2000
    2.1577    0.3639    0.1151 C   0  0  0  0  0  0  0  0  0  0  0  0
    0.6492    0.3279    0.0327 C   0  0  0  0  0  0  0  0  0  0  0  0
   -0.0397   -0.9073   -0.0288 C   0  0  0  0  0  0  0  0  0  0  0  0
    0.6688   -2.1242   -0.1093 N   0  0  0  0  0  0  0  0  0  0  0  0
   -1.4395   -0.8975   -0.2045 C   0  0  0  0  0  0  0  0  0  0  0  0
   -2.4141   -2.5218   -0.3978 Br  0  0  0  0  0  0  0  0  0  0  0  0
   -2.1637    0.2924   -0.2077 C   0  0  0  0  0  0  0  0  0  0  0  0
   -1.4960    1.5058   -0.0572 C   0  0  0  0  0  0  0  0  0  0  0  0
   -2.5710    3.0764   -0.0407 Br  0  0  0  0  0  0  0  0  0  0  0  0
   -0.0972    1.5330    0.0653 C   0  0  0  0  0  0  0  0  0  0  0  0
    0.7266    3.0518    0.2696 Cl  0  0  0  0  0  0  0  0  0  0  0  0
    2.6199   -0.5275   -0.3191 H   0  0  0  0  0  0  0  0  0  0  0  0
    2.4722    0.4479    1.1600 H   0  0  0  0  0  0  0  0  0  0  0  0
    2.5717    1.2000   -0.4572 H   0  0  0  0  0  0  0  0  0  0  0  0
    1.5210   -2.1558    0.4405 H   0  0  0  0  0  0  0  0  0  0  0  0
    0.0787   -2.9369    0.0607 H   0  0  0  0  0  0  0  0  0  0  0  0
   -3.2447    0.2718   -0.3217 H   0  0  0  0  0  0  0  0  0  0  0  0
  1  2  1  0
  2  3  2  0
  3  4  1  0
  3  5  1  0
  5  6  1  0
  5  7  2  0
  7  8  1  0
  8  9  1  0
  8 10  2  0
 10 11  1  0
 10  2  1  0
  1 12  1  0
  1 13  1  0
  1 14  1  0
  4 15  1  0
  4 16  1  0
  7 17  1  0
M  END
