
     RDKit          3D

 14 14  0  0  0  0  0  0  0  0999 V2000
    2.6686   -1.1475   -0.4020 O   0  0  0  0  0  0  0  0  0  0  0  0
    1.9798   -0.1553   -0.2627 C   0  0  0  0  0  0  0  0  0  0  0  0
    2.4852    1.0845   -0.3441 O   0  0  0  0  0  0  0  0  0  0  0  0
    0.5211   -0.1514   -0.1144 C   0  0  0  0  0  0  0  0  0  0  0  0
   -0.1919   -1.0018   -0.9466 C   0  0  0  0  0  0  0  0  0  0  0  0
   -1.5424   -1.1067   -0.9441 N   0  0  0  0  0  0  0  0  0  0  0  0
   -2.2153   -0.3389   -0.0613 C   0  0  0  0  0  0  0  0  0  0  0  0
   -4.1059   -0.4717   -0.0411 Br  0  0  0  0  0  0  0  0  0  0  0  0
   -1.5945    0.5234    0.8275 C   0  0  0  0  0  0  0  0  0  0  0  0
   -0.2008    0.6114    0.8021 C   0  0  0  0  0  0  0  0  0  0  0  0
    0.6151    1.7314    2.1000 Br  0  0  0  0  0  0  0  0  0  0  0  0
    3.4488    0.9580   -0.4761 H   0  0  0  0  0  0  0  0  0  0  0  0
    0.3127   -1.6410   -1.6686 H   0  0  0  0  0  0  0  0  0  0  0  0
   -2.1804    1.1055    1.5315 H   0  0  0  0  0  0  0  0  0  0  0  0
  1  2  2  0
  2  3  1  0
  2  4  1  0
  4  5  2  0
  5  6  1  0
  6  7  2  0
  7  8  1  0
  7  9  1  0
  9 10  2  0
 10 11  1  0
 10  4  1  0
  3 12  1  0
  5 13  1  0
  9 14  1  0
M  END
