
     RDKit          3D

 15 15  0  0  0  0  0  0  0  0999 V2000
    3.1325   -1.2583    0.2135 O   0  0  0  0  0  0  0  0  0  0  0  0
    2.4099   -0.2809    0.2705 C   0  0  0  0  0  0  0  0  0  0  0  0
    2.9348    0.9364    0.5270 O   0  0  0  0  0  0  0  0  0  0  0  0
    0.9248   -0.2409    0.0832 C   0  0  0  0  0  0  0  0  0  0  0  0
    0.2173    0.9501    0.1752 C   0  0  0  0  0  0  0  0  0  0  0  0
   -1.1599    0.9045   -0.0113 C   0  0  0  0  0  0  0  0  0  0  0  0
   -2.1505    2.5170    0.1090 Br  0  0  0  0  0  0  0  0  0  0  0  0
   -1.7972   -0.3044   -0.2811 C   0  0  0  0  0  0  0  0  0  0  0  0
   -3.1506   -0.3683   -0.4673 O   0  0  0  0  0  0  0  0  0  0  0  0
   -1.0057   -1.4460   -0.3545 C   0  0  0  0  0  0  0  0  0  0  0  0
   -1.7894   -3.1404   -0.7185 Br  0  0  0  0  0  0  0  0  0  0  0  0
    0.3356   -1.4338   -0.1779 N   0  0  0  0  0  0  0  0  0  0  0  0
    3.8940    0.7485    0.6228 H   0  0  0  0  0  0  0  0  0  0  0  0
    0.7228    1.8867    0.3858 H   0  0  0  0  0  0  0  0  0  0  0  0
   -3.5184    0.5298   -0.3763 H   0  0  0  0  0  0  0  0  0  0  0  0
  1  2  2  0
  2  3  1  0
  2  4  1  0
  4  5  2  0
  5  6  1  0
  6  7  1  0
  6  8  2  0
  8  9  1  0
  8 10  1  0
 10 11  1  0
 10 12  2  0
 12  4  1  0
  3 13  1  0
  5 14  1  0
  9 15  1  0
M  END
