
     RDKit          3D

 18 19  0  0  0  0  0  0  0  0999 V2000
   -1.3622   -2.4009   -1.1408 O   0  0  0  0  0  0  0  0  0  0  0  0
   -1.2280   -1.3085   -0.6200 C   0  0  0  0  0  0  0  0  0  0  0  0
   -2.3325   -0.3858   -0.1757 C   0  0  0  0  0  0  0  0  0  0  0  0
   -1.6161    0.8431    0.4082 C   0  0  0  0  0  0  0  0  0  0  0  0
   -0.1567    0.5416    0.2590 C   0  0  0  0  0  0  0  0  0  0  0  0
    0.9360    1.3131    0.6232 C   0  0  0  0  0  0  0  0  0  0  0  0
    0.7203    3.0069    1.4323 Br  0  0  0  0  0  0  0  0  0  0  0  0
    2.2272    0.8267    0.3865 C   0  0  0  0  0  0  0  0  0  0  0  0
    2.4096   -0.4293   -0.2136 C   0  0  0  0  0  0  0  0  0  0  0  0
    4.1634   -1.0655   -0.5235 Br  0  0  0  0  0  0  0  0  0  0  0  0
    1.3206   -1.2130   -0.5836 C   0  0  0  0  0  0  0  0  0  0  0  0
    0.0613   -0.6977   -0.3332 C   0  0  0  0  0  0  0  0  0  0  0  0
   -2.9524   -0.1082   -1.0333 H   0  0  0  0  0  0  0  0  0  0  0  0
   -2.9466   -0.8796    0.5832 H   0  0  0  0  0  0  0  0  0  0  0  0
   -1.8845    0.9765    1.4614 H   0  0  0  0  0  0  0  0  0  0  0  0
   -1.8904    1.7450   -0.1491 H   0  0  0  0  0  0  0  0  0  0  0  0
    3.0931    1.4224    0.6676 H   0  0  0  0  0  0  0  0  0  0  0  0
    1.4381   -2.1867   -1.0487 H   0  0  0  0  0  0  0  0  0  0  0  0
  1  2  2  0
  2  3  1  0
  3  4  1  0
  4  5  1  0
  5  6  2  0
  6  7  1  0
  6  8  1  0
  8  9  2  0
  9 10  1  0
  9 11  1  0
 11 12  2  0
 12  2  1  0
 12  5  1  0
  3 13  1  0
  3 14  1  0
  4 15  1  0
  4 16  1  0
  8 17  1  0
 11 18  1  0
M  END
