
     RDKit          3D

 15 16  0  0  0  0  0  0  0  0999 V2000
   -3.1550   -2.1383   -0.6118 Br  0  0  0  0  0  0  0  0  0  0  0  0
   -1.7312   -0.9289   -0.2983 C   0  0  0  0  0  0  0  0  0  0  0  0
   -2.0157    0.4252   -0.1171 C   0  0  0  0  0  0  0  0  0  0  0  0
   -0.9770    1.3358    0.1159 C   0  0  0  0  0  0  0  0  0  0  0  0
   -1.3781    3.1673    0.3597 Br  0  0  0  0  0  0  0  0  0  0  0  0
    0.3507    0.8715    0.1649 C   0  0  0  0  0  0  0  0  0  0  0  0
    1.5370    1.5416    0.3745 N   0  0  0  0  0  0  0  0  0  0  0  0
    2.4749    0.6254    0.3191 C   0  0  0  0  0  0  0  0  0  0  0  0
    1.9541   -0.6144    0.0826 N   0  0  0  0  0  0  0  0  0  0  0  0
    0.5911   -0.4891   -0.0214 C   0  0  0  0  0  0  0  0  0  0  0  0
   -0.4218   -1.4235   -0.2557 C   0  0  0  0  0  0  0  0  0  0  0  0
   -3.0434    0.7776   -0.1560 H   0  0  0  0  0  0  0  0  0  0  0  0
    3.5362    0.7976    0.4413 H   0  0  0  0  0  0  0  0  0  0  0  0
    2.4819   -1.4714   -0.0007 H   0  0  0  0  0  0  0  0  0  0  0  0
   -0.2037   -2.4766   -0.3970 H   0  0  0  0  0  0  0  0  0  0  0  0
  1  2  1  0
  2  3  2  0
  3  4  1  0
  4  5  1  0
  4  6  2  0
  6  7  1  0
  7  8  2  0
  8  9  1  0
  9 10  1  0
 10 11  2  0
 11  2  1  0
 10  6  1  0
  3 12  1  0
  8 13  1  0
  9 14  1  0
 11 15  1  0
M  END
