
     RDKit          3D

 21 23  0  0  0  0  0  0  0  0999 V2000
    3.7315    2.6160    0.0506 Br  0  0  0  0  0  0  0  0  0  0  0  0
    2.7807    0.9739    0.0871 C   0  0  0  0  0  0  0  0  0  0  0  0
    3.5187   -0.2130    0.1279 C   0  0  0  0  0  0  0  0  0  0  0  0
    2.8744   -1.4391    0.1558 C   0  0  0  0  0  0  0  0  0  0  0  0
    1.4795   -1.4949    0.1432 C   0  0  0  0  0  0  0  0  0  0  0  0
    0.6970   -0.3091    0.1019 C   0  0  0  0  0  0  0  0  0  0  0  0
    1.3679    0.9174    0.0743 C   0  0  0  0  0  0  0  0  0  0  0  0
    0.2473    2.2183    0.0263 S   0  0  0  0  0  0  0  0  0  0  0  0
   -1.1324    1.1953    0.0410 C   0  0  0  0  0  0  0  0  0  0  0  0
   -2.4981    1.5605    0.0169 C   0  0  0  0  0  0  0  0  0  0  0  0
   -3.0640    3.3712   -0.0397 Br  0  0  0  0  0  0  0  0  0  0  0  0
   -3.4795    0.5647    0.0349 C   0  0  0  0  0  0  0  0  0  0  0  0
   -3.1210   -0.7728    0.0761 C   0  0  0  0  0  0  0  0  0  0  0  0
   -1.7726   -1.1335    0.0999 C   0  0  0  0  0  0  0  0  0  0  0  0
   -0.7480   -0.1485    0.0827 C   0  0  0  0  0  0  0  0  0  0  0  0
    4.6060   -0.1828    0.1381 H   0  0  0  0  0  0  0  0  0  0  0  0
    3.4534   -2.3591    0.1875 H   0  0  0  0  0  0  0  0  0  0  0  0
    0.9898   -2.4660    0.1654 H   0  0  0  0  0  0  0  0  0  0  0  0
   -4.5335    0.8330    0.0166 H   0  0  0  0  0  0  0  0  0  0  0  0
   -3.8885   -1.5431    0.0899 H   0  0  0  0  0  0  0  0  0  0  0  0
   -1.5087   -2.1883    0.1322 H   0  0  0  0  0  0  0  0  0  0  0  0
  1  2  1  0
  2  3  2  0
  3  4  1  0
  4  5  2  0
  5  6  1  0
  6  7  2  0
  7  8  1  0
  8  9  1  0
  9 10  2  0
 10 11  1  0
 10 12  1  0
 12 13  2  0
 13 14  1  0
 14 15  2  0
  7  2  1  0
 15  9  1  0
 15  6  1  0
  3 16  1  0
  4 17  1  0
  5 18  1  0
 12 19  1  0
 13 20  1  0
 14 21  1  0
M  END
