
     RDKit          3D

 16 16  0  0  0  0  0  0  0  0999 V2000
   -0.9753    1.9943   -0.4282 N   0  0  0  0  0  0  0  0  0  0  0  0
   -0.1943    0.8612   -0.1178 C   0  0  0  0  0  0  0  0  0  0  0  0
   -0.7635   -0.4137    0.0980 C   0  0  0  0  0  0  0  0  0  0  0  0
   -2.2146   -0.5764    0.1927 N   0  0  0  0  0  4  0  0  0  0  0  0
   -2.8654    0.3437    0.7110 O   0  0  0  0  0  0  0  0  0  0  0  0
   -2.6963   -1.6378   -0.2270 O   0  0  0  0  0  1  0  0  0  0  0  0
    0.0251   -1.5674    0.2521 C   0  0  0  0  0  0  0  0  0  0  0  0
    1.4095   -1.4622    0.1602 C   0  0  0  0  0  0  0  0  0  0  0  0
    2.4712   -3.0130    0.3710 Br  0  0  0  0  0  0  0  0  0  0  0  0
    2.0014   -0.2279   -0.0925 C   0  0  0  0  0  0  0  0  0  0  0  0
    3.3373   -0.1388   -0.1932 F   0  0  0  0  0  0  0  0  0  0  0  0
    1.2107    0.9165   -0.2484 C   0  0  0  0  0  0  0  0  0  0  0  0
    2.0817    2.5717   -0.6157 Br  0  0  0  0  0  0  0  0  0  0  0  0
   -1.9021    2.0049    0.0074 H   0  0  0  0  0  0  0  0  0  0  0  0
   -0.4882    2.8812   -0.3053 H   0  0  0  0  0  0  0  0  0  0  0  0
   -0.4371   -2.5362    0.4356 H   0  0  0  0  0  0  0  0  0  0  0  0
  1  2  1  0
  2  3  2  0
  3  4  1  0
  4  5  2  0
  4  6  1  0
  3  7  1  0
  7  8  2  0
  8  9  1  0
  8 10  1  0
 10 11  1  0
 10 12  2  0
 12 13  1  0
 12  2  1  0
  1 14  1  0
  1 15  1  0
  7 16  1  0
M  CHG  2   4   1   6  -1
M  END
