
     RDKit          3D

 17 18  0  0  0  0  0  0  0  0999 V2000
    4.1252    0.9064   -0.0188 Br  0  0  0  0  0  0  0  0  0  0  0  0
    2.3720    0.2030   -0.0389 C   0  0  0  0  0  0  0  0  0  0  0  0
    2.1771   -1.1647   -0.1551 C   0  0  0  0  0  0  0  0  0  0  0  0
    0.8754   -1.6706   -0.1686 C   0  0  0  0  0  0  0  0  0  0  0  0
   -0.2369   -0.8449   -0.0690 C   0  0  0  0  0  0  0  0  0  0  0  0
   -1.4504   -1.4189   -0.0906 N   0  0  0  0  0  0  0  0  0  0  0  0
   -2.5387   -0.6292    0.0053 C   0  0  0  0  0  0  0  0  0  0  0  0
   -2.4788    0.7408    0.1249 C   0  0  0  0  0  0  0  0  0  0  0  0
   -1.2201    1.3324    0.1470 C   0  0  0  0  0  0  0  0  0  0  0  0
   -1.1730    3.2286    0.3134 Br  0  0  0  0  0  0  0  0  0  0  0  0
   -0.0470    0.5493    0.0497 C   0  0  0  0  0  0  0  0  0  0  0  0
    1.2774    1.0587    0.0629 C   0  0  0  0  0  0  0  0  0  0  0  0
    3.0190   -1.8469   -0.2356 H   0  0  0  0  0  0  0  0  0  0  0  0
    0.7235   -2.7443   -0.2598 H   0  0  0  0  0  0  0  0  0  0  0  0
   -3.4919   -1.1502   -0.0179 H   0  0  0  0  0  0  0  0  0  0  0  0
   -3.3899    1.3235    0.1982 H   0  0  0  0  0  0  0  0  0  0  0  0
    1.4573    2.1269    0.1530 H   0  0  0  0  0  0  0  0  0  0  0  0
  1  2  1  0
  2  3  2  0
  3  4  1  0
  4  5  2  0
  5  6  1  0
  6  7  2  0
  7  8  1  0
  8  9  2  0
  9 10  1  0
  9 11  1  0
 11 12  2  0
 12  2  1  0
 11  5  1  0
  3 13  1  0
  4 14  1  0
  7 15  1  0
  8 16  1  0
 12 17  1  0
M  END
