
     RDKit          3D

 14 14  0  0  0  0  0  0  0  0999 V2000
   -2.3432    0.2800    0.0437 N   0  0  0  0  0  0  0  0  0  0  0  0
   -0.9479    0.0860   -0.0397 C   0  0  0  0  0  0  0  0  0  0  0  0
   -0.3444   -1.0596    0.5158 C   0  0  0  0  0  0  0  0  0  0  0  0
   -1.4010   -2.4821    1.2085 Br  0  0  0  0  0  0  0  0  0  0  0  0
    1.0462   -1.2031    0.5600 C   0  0  0  0  0  0  0  0  0  0  0  0
    1.8578   -0.1796    0.0765 C   0  0  0  0  0  0  0  0  0  0  0  0
    3.7376   -0.3820    0.1402 Br  0  0  0  0  0  0  0  0  0  0  0  0
    1.2881    0.9811   -0.4388 C   0  0  0  0  0  0  0  0  0  0  0  0
    2.0768    1.9695   -0.8917 F   0  0  0  0  0  0  0  0  0  0  0  0
   -0.1009    1.1227   -0.4820 C   0  0  0  0  0  0  0  0  0  0  0  0
   -0.7752    2.5864   -1.1199 Cl  0  0  0  0  0  0  0  0  0  0  0  0
   -2.8822   -0.5824    0.0668 H   0  0  0  0  0  0  0  0  0  0  0  0
   -2.7031    0.9670   -0.6162 H   0  0  0  0  0  0  0  0  0  0  0  0
    1.4912   -2.1037    0.9768 H   0  0  0  0  0  0  0  0  0  0  0  0
  1  2  1  0
  2  3  2  0
  3  4  1  0
  3  5  1  0
  5  6  2  0
  6  7  1  0
  6  8  1  0
  8  9  1  0
  8 10  2  0
 10 11  1  0
 10  2  1  0
  1 12  1  0
  1 13  1  0
  5 14  1  0
M  END
