
     RDKit          3D

 12 12  0  0  0  0  0  0  0  0999 V2000
   -2.2784   -0.3354    0.0754 N   0  0  0  0  0  0  0  0  0  0  0  0
   -0.8828   -0.3311    0.0253 C   0  0  0  0  0  0  0  0  0  0  0  0
   -0.2631   -1.5231   -0.0720 N   0  0  0  0  0  0  0  0  0  0  0  0
    1.1099   -1.5976   -0.0900 N   0  0  0  0  0  0  0  0  0  0  0  0
    1.8436   -0.4727    0.0065 C   0  0  0  0  0  0  0  0  0  0  0  0
    3.7294   -0.6204   -0.0178 Br  0  0  0  0  0  0  0  0  0  0  0  0
    1.2594    0.7711    0.1178 C   0  0  0  0  0  0  0  0  0  0  0  0
   -0.1308    0.8371    0.1297 C   0  0  0  0  0  0  0  0  0  0  0  0
   -0.9504    2.5428    0.2743 Br  0  0  0  0  0  0  0  0  0  0  0  0
   -2.6886    0.3440   -0.5561 H   0  0  0  0  0  0  0  0  0  0  0  0
   -2.6127   -1.2815   -0.0886 H   0  0  0  0  0  0  0  0  0  0  0  0
    1.8645    1.6668    0.1955 H   0  0  0  0  0  0  0  0  0  0  0  0
  1  2  1  0
  2  3  2  0
  3  4  1  0
  4  5  2  0
  5  6  1  0
  5  7  1  0
  7  8  2  0
  8  9  1  0
  8  2  1  0
  1 10  1  0
  1 11  1  0
  7 12  1  0
M  END
