
     RDKit          3D

 16 16  0  0  0  0  0  0  0  0999 V2000
   -1.6975    1.0757   -1.0358 N   0  0  0  0  0  0  0  0  0  0  0  0
   -0.5952    0.5899   -0.3016 C   0  0  0  0  0  0  0  0  0  0  0  0
   -0.3468   -0.7907   -0.1348 C   0  0  0  0  0  0  0  0  0  0  0  0
   -1.3331   -1.7832   -0.5630 N   0  0  0  0  0  4  0  0  0  0  0  0
   -2.5328   -1.4863   -0.4583 O   0  0  0  0  0  0  0  0  0  0  0  0
   -0.9040   -2.8691   -0.9772 O   0  0  0  0  0  1  0  0  0  0  0  0
    0.8325   -1.2707    0.4617 C   0  0  0  0  0  0  0  0  0  0  0  0
    1.8031   -0.3638    0.8759 C   0  0  0  0  0  0  0  0  0  0  0  0
    3.3879   -1.0085    1.6816 Br  0  0  0  0  0  0  0  0  0  0  0  0
    1.6085    1.0018    0.6893 C   0  0  0  0  0  0  0  0  0  0  0  0
    2.5569    1.8684    1.0797 F   0  0  0  0  0  0  0  0  0  0  0  0
    0.4339    1.4733    0.0917 C   0  0  0  0  0  0  0  0  0  0  0  0
    0.2394    3.3533   -0.1559 Br  0  0  0  0  0  0  0  0  0  0  0  0
   -2.5365    0.4909   -0.9812 H   0  0  0  0  0  0  0  0  0  0  0  0
   -1.9086    2.0586   -0.8675 H   0  0  0  0  0  0  0  0  0  0  0  0
    0.9925   -2.3396    0.5953 H   0  0  0  0  0  0  0  0  0  0  0  0
  1  2  1  0
  2  3  2  0
  3  4  1  0
  4  5  2  0
  4  6  1  0
  3  7  1  0
  7  8  2  0
  8  9  1  0
  8 10  1  0
 10 11  1  0
 10 12  2  0
 12 13  1  0
 12  2  1  0
  1 14  1  0
  1 15  1  0
  7 16  1  0
M  CHG  2   4   1   6  -1
M  END
