
     RDKit          3D

 13 13  0  0  0  0  0  0  0  0999 V2000
   -1.9724   -1.5113    1.9115 O   0  0  0  0  0  0  0  0  0  0  0  0
   -1.9178   -0.8452    0.8837 C   0  0  0  0  0  0  0  0  0  0  0  0
   -0.6352   -0.3324    0.3746 C   0  0  0  0  0  0  0  0  0  0  0  0
    0.5222   -0.6188    1.0852 C   0  0  0  0  0  0  0  0  0  0  0  0
    1.7582   -0.2030    0.7171 N   0  0  0  0  0  0  0  0  0  0  0  0
    1.8509    0.5320   -0.4098 C   0  0  0  0  0  0  0  0  0  0  0  0
    3.5723    1.1218   -0.9392 Br  0  0  0  0  0  0  0  0  0  0  0  0
    0.7572    0.8712   -1.1884 C   0  0  0  0  0  0  0  0  0  0  0  0
   -0.5049    0.4296   -0.7858 C   0  0  0  0  0  0  0  0  0  0  0  0
   -1.9774    0.9160   -1.8803 Br  0  0  0  0  0  0  0  0  0  0  0  0
   -2.8340   -0.6170    0.3188 H   0  0  0  0  0  0  0  0  0  0  0  0
    0.4962   -1.2083    2.0000 H   0  0  0  0  0  0  0  0  0  0  0  0
    0.8846    1.4655   -2.0875 H   0  0  0  0  0  0  0  0  0  0  0  0
  1  2  2  0
  2  3  1  0
  3  4  2  0
  4  5  1  0
  5  6  2  0
  6  7  1  0
  6  8  1  0
  8  9  2  0
  9 10  1  0
  9  3  1  0
  2 11  1  0
  4 12  1  0
  8 13  1  0
M  END
