
     RDKit          3D

 17 17  0  0  0  0  0  0  0  0999 V2000
   -1.2481   -1.6218    0.7833 C   0  0  0  0  0  0  0  0  0  0  0  0
   -0.2202   -0.6351    0.2796 C   0  0  0  0  0  0  0  0  0  0  0  0
   -0.6191    0.6245   -0.2285 C   0  0  0  0  0  0  0  0  0  0  0  0
   -1.9855    0.9474   -0.3626 N   0  0  0  0  0  0  0  0  0  0  0  0
    0.3606    1.4770   -0.7796 C   0  0  0  0  0  0  0  0  0  0  0  0
   -0.1213    3.1399   -1.5723 Br  0  0  0  0  0  0  0  0  0  0  0  0
    1.7147    1.1537   -0.7340 C   0  0  0  0  0  0  0  0  0  0  0  0
    2.1174   -0.0466   -0.1529 C   0  0  0  0  0  0  0  0  0  0  0  0
    3.9892   -0.3880   -0.1063 Br  0  0  0  0  0  0  0  0  0  0  0  0
    1.1621   -0.9416    0.3559 C   0  0  0  0  0  0  0  0  0  0  0  0
    1.6751   -2.4309    1.0949 Cl  0  0  0  0  0  0  0  0  0  0  0  0
   -0.9710   -2.6517    0.5371 H   0  0  0  0  0  0  0  0  0  0  0  0
   -1.3582   -1.5247    1.8677 H   0  0  0  0  0  0  0  0  0  0  0  0
   -2.2272   -1.4774    0.3175 H   0  0  0  0  0  0  0  0  0  0  0  0
   -2.5788    0.5982    0.3828 H   0  0  0  0  0  0  0  0  0  0  0  0
   -2.1420    1.9386   -0.5375 H   0  0  0  0  0  0  0  0  0  0  0  0
    2.4523    1.8384   -1.1453 H   0  0  0  0  0  0  0  0  0  0  0  0
  1  2  1  0
  2  3  2  0
  3  4  1  0
  3  5  1  0
  5  6  1  0
  5  7  2  0
  7  8  1  0
  8  9  1  0
  8 10  2  0
 10 11  1  0
 10  2  1  0
  1 12  1  0
  1 13  1  0
  1 14  1  0
  4 15  1  0
  4 16  1  0
  7 17  1  0
M  END
