
     RDKit          3D

 12 13  0  0  0  0  0  0  0  0999 V2000
   -2.7488   -0.8544   -0.0673 O   0  0  0  0  0  0  0  0  0  0  0  0
   -1.5307   -0.8712   -0.0297 C   0  0  0  0  0  0  0  0  0  0  0  0
   -0.7467   -2.0119    0.0170 O   0  0  0  0  0  0  0  0  0  0  0  0
    0.5920   -1.6583    0.0510 C   0  0  0  0  0  0  0  0  0  0  0  0
    1.5263   -2.4396    0.0952 O   0  0  0  0  0  0  0  0  0  0  0  0
    0.6582   -0.2308    0.0248 C   0  0  0  0  0  0  0  0  0  0  0  0
    1.5960    0.7542    0.0340 C   0  0  0  0  0  0  0  0  0  0  0  0
    3.4810    0.4990    0.0968 Br  0  0  0  0  0  0  0  0  0  0  0  0
    0.8533    2.2992   -0.0194 S   0  0  0  0  0  0  0  0  0  0  0  0
   -0.7178    1.6122   -0.0540 C   0  0  0  0  0  0  0  0  0  0  0  0
   -2.3132    2.6475   -0.1234 Br  0  0  0  0  0  0  0  0  0  0  0  0
   -0.6496    0.2541   -0.0249 C   0  0  0  0  0  0  0  0  0  0  0  0
  1  2  2  0
  2  3  1  0
  3  4  1  0
  4  5  2  0
  4  6  1  0
  6  7  2  0
  7  8  1  0
  7  9  1  0
  9 10  1  0
 10 11  1  0
 10 12  2  0
 12  2  1  0
 12  6  1  0
M  END
