
     RDKit          3D

 18 18  0  0  0  0  0  0  0  0999 V2000
   -2.2846   -0.3654   -0.5382 C   0  0  0  0  0  0  0  0  0  0  0  0
   -0.9212    0.1119   -0.1091 C   0  0  0  0  0  0  0  0  0  0  0  0
   -0.7477    1.3900    0.4523 C   0  0  0  0  0  0  0  0  0  0  0  0
   -2.2053    2.5868    0.7041 Br  0  0  0  0  0  0  0  0  0  0  0  0
    0.5163    1.8431    0.8545 C   0  0  0  0  0  0  0  0  0  0  0  0
    1.6352    1.0252    0.7031 C   0  0  0  0  0  0  0  0  0  0  0  0
    3.3262    1.6757    1.2597 Br  0  0  0  0  0  0  0  0  0  0  0  0
    1.5055   -0.2472    0.1515 C   0  0  0  0  0  0  0  0  0  0  0  0
    2.5927   -1.0623   -0.0040 O   0  0  0  0  0  0  0  0  0  0  0  0
    0.2366   -0.6842   -0.2449 C   0  0  0  0  0  0  0  0  0  0  0  0
    0.1354   -2.0104   -0.8140 N   0  0  0  0  0  4  0  0  0  0  0  0
   -0.1025   -2.9395   -0.0303 O   0  0  0  0  0  0  0  0  0  0  0  0
    0.2379   -2.1008   -2.0450 O   0  0  0  0  0  1  0  0  0  0  0  0
   -2.2802   -1.3746   -0.9575 H   0  0  0  0  0  0  0  0  0  0  0  0
   -2.9650   -0.3845    0.3196 H   0  0  0  0  0  0  0  0  0  0  0  0
   -2.6891    0.2948   -1.3126 H   0  0  0  0  0  0  0  0  0  0  0  0
    0.6254    2.8363    1.2864 H   0  0  0  0  0  0  0  0  0  0  0  0
    3.3845   -0.5950    0.3243 H   0  0  0  0  0  0  0  0  0  0  0  0
  1  2  1  0
  2  3  2  0
  3  4  1  0
  3  5  1  0
  5  6  2  0
  6  7  1  0
  6  8  1  0
  8  9  1  0
  8 10  2  0
 10 11  1  0
 11 12  2  0
 11 13  1  0
 10  2  1  0
  1 14  1  0
  1 15  1  0
  1 16  1  0
  5 17  1  0
  9 18  1  0
M  CHG  2  11   1  13  -1
M  END
