
     RDKit          3D

 17 17  0  0  0  0  0  0  0  0999 V2000
    2.4900   -0.3540    1.1668 C   0  0  0  0  0  0  0  0  0  0  0  0
    1.7044    0.5125    0.3546 O   0  0  0  0  0  0  0  0  0  0  0  0
    0.4243    0.0289    0.1213 C   0  0  0  0  0  0  0  0  0  0  0  0
    0.0974   -1.2061    0.5619 N   0  0  0  0  0  0  0  0  0  0  0  0
   -1.1589   -1.6245    0.3139 C   0  0  0  0  0  0  0  0  0  0  0  0
   -1.6407   -3.3528    0.9300 Br  0  0  0  0  0  0  0  0  0  0  0  0
   -2.1056   -0.8681   -0.3525 C   0  0  0  0  0  0  0  0  0  0  0  0
   -1.7307    0.3966   -0.7986 C   0  0  0  0  0  0  0  0  0  0  0  0
   -3.0352    1.4471   -1.6978 Br  0  0  0  0  0  0  0  0  0  0  0  0
   -0.4291    0.8711   -0.6070 C   0  0  0  0  0  0  0  0  0  0  0  0
   -0.0593    2.1943   -0.9226 N   0  0  0  0  0  0  0  0  0  0  0  0
    2.6705   -1.3112    0.6654 H   0  0  0  0  0  0  0  0  0  0  0  0
    2.0305   -0.5036    2.1500 H   0  0  0  0  0  0  0  0  0  0  0  0
    3.4606    0.1265    1.3236 H   0  0  0  0  0  0  0  0  0  0  0  0
   -3.1089   -1.2461   -0.5141 H   0  0  0  0  0  0  0  0  0  0  0  0
   -0.5610    2.5820   -1.7162 H   0  0  0  0  0  0  0  0  0  0  0  0
    0.9517    2.3073   -0.9786 H   0  0  0  0  0  0  0  0  0  0  0  0
  1  2  1  0
  2  3  1  0
  3  4  2  0
  4  5  1  0
  5  6  1  0
  5  7  2  0
  7  8  1  0
  8  9  1  0
  8 10  2  0
 10 11  1  0
 10  3  1  0
  1 12  1  0
  1 13  1  0
  1 14  1  0
  7 15  1  0
 11 16  1  0
 11 17  1  0
M  END
