
     RDKit          3D

 12 13  0  0  0  0  0  0  0  0999 V2000
   -1.9244   -1.6453   -1.3710 O   0  0  0  0  0  0  0  0  0  0  0  0
   -0.8693   -1.1868   -0.9690 C   0  0  0  0  0  0  0  0  0  0  0  0
    0.3884   -1.6647   -1.2975 O   0  0  0  0  0  0  0  0  0  0  0  0
    1.3576   -0.9062   -0.6623 C   0  0  0  0  0  0  0  0  0  0  0  0
    2.5604   -1.0802   -0.7533 O   0  0  0  0  0  0  0  0  0  0  0  0
    0.6837    0.0960    0.1020 C   0  0  0  0  0  0  0  0  0  0  0  0
    0.9852    1.1319    0.9302 C   0  0  0  0  0  0  0  0  0  0  0  0
    2.7356    1.6847    1.4332 Br  0  0  0  0  0  0  0  0  0  0  0  0
   -0.4439    1.9024    1.4828 S   0  0  0  0  0  0  0  0  0  0  0  0
   -1.4421    0.8261    0.5959 C   0  0  0  0  0  0  0  0  0  0  0  0
   -3.3431    0.9188    0.5961 Br  0  0  0  0  0  0  0  0  0  0  0  0
   -0.6882   -0.0768   -0.0870 C   0  0  0  0  0  0  0  0  0  0  0  0
  1  2  2  0
  2  3  1  0
  3  4  1  0
  4  5  2  0
  4  6  1  0
  6  7  2  0
  7  8  1  0
  7  9  1  0
  9 10  1  0
 10 11  1  0
 10 12  2  0
 12  2  1  0
 12  6  1  0
M  END
