
     RDKit          3D

 15 16  0  0  0  0  0  0  0  0999 V2000
    3.1246   -1.8345   -0.2362 O   0  0  0  0  0  0  0  0  0  0  0  0
    2.5418   -0.7695   -0.0959 C   0  0  0  0  0  0  0  0  0  0  0  0
    3.2581    0.3681    0.0575 O   0  0  0  0  0  0  0  0  0  0  0  0
    1.1171   -0.5066   -0.0646 C   0  0  0  0  0  0  0  0  0  0  0  0
    0.4712    0.7333    0.0989 C   0  0  0  0  0  0  0  0  0  0  0  0
   -0.9445    0.6354    0.0822 C   0  0  0  0  0  0  0  0  0  0  0  0
   -1.9644    1.5121    0.1963 C   0  0  0  0  0  0  0  0  0  0  0  0
   -1.8240    3.3919    0.4470 Br  0  0  0  0  0  0  0  0  0  0  0  0
   -3.4461    0.6742    0.0809 S   0  0  0  0  0  0  0  0  0  0  0  0
   -2.6637   -0.8403   -0.1188 C   0  0  0  0  0  0  0  0  0  0  0  0
   -3.6120   -2.4809   -0.3398 Br  0  0  0  0  0  0  0  0  0  0  0  0
   -1.3043   -0.7015   -0.0968 C   0  0  0  0  0  0  0  0  0  0  0  0
    0.0390   -1.8904   -0.2517 S   0  0  0  0  0  0  0  0  0  0  0  0
    4.1839    0.0498    0.0175 H   0  0  0  0  0  0  0  0  0  0  0  0
    1.0232    1.6588    0.2236 H   0  0  0  0  0  0  0  0  0  0  0  0
  1  2  2  0
  2  3  1  0
  2  4  1  0
  4  5  2  0
  5  6  1  0
  6  7  2  0
  7  8  1  0
  7  9  1  0
  9 10  1  0
 10 11  1  0
 10 12  2  0
 12 13  1  0
 13  4  1  0
 12  6  1  0
  3 14  1  0
  5 15  1  0
M  END
