
     RDKit          3D

 14 15  0  0  0  0  0  0  0  0999 V2000
    4.4236   -0.4522    0.0296 Cl  0  0  0  0  0  0  0  0  0  0  0  0
    2.7096   -0.3799    0.0206 C   0  0  0  0  0  0  0  0  0  0  0  0
    2.0598    0.7521   -0.0092 N   0  0  0  0  0  0  0  0  0  0  0  0
    0.6930    0.4916   -0.0088 C   0  0  0  0  0  0  0  0  0  0  0  0
   -0.3496    1.4483   -0.0361 C   0  0  0  0  0  0  0  0  0  0  0  0
    0.0427    3.3018   -0.0787 Br  0  0  0  0  0  0  0  0  0  0  0  0
   -1.6877    1.0424   -0.0321 C   0  0  0  0  0  0  0  0  0  0  0  0
   -2.0063   -0.3106   -0.0011 C   0  0  0  0  0  0  0  0  0  0  0  0
   -0.9990   -1.2812    0.0264 C   0  0  0  0  0  0  0  0  0  0  0  0
   -1.4975   -3.1077    0.0679 Br  0  0  0  0  0  0  0  0  0  0  0  0
    0.3474   -0.8698    0.0223 C   0  0  0  0  0  0  0  0  0  0  0  0
    1.8043   -1.8073    0.0509 S   0  0  0  0  0  0  0  0  0  0  0  0
   -2.4866    1.7806   -0.0531 H   0  0  0  0  0  0  0  0  0  0  0  0
   -3.0537   -0.6080    0.0015 H   0  0  0  0  0  0  0  0  0  0  0  0
  1  2  1  0
  2  3  2  0
  3  4  1  0
  4  5  2  0
  5  6  1  0
  5  7  1  0
  7  8  2  0
  8  9  1  0
  9 10  1  0
  9 11  2  0
 11 12  1  0
 12  2  1  0
 11  4  1  0
  7 13  1  0
  8 14  1  0
M  END
