
     RDKit          3D

 12 13  0  0  0  0  0  0  0  0999 V2000
   -1.3328   -3.0222    0.2814 Br  0  0  0  0  0  0  0  0  0  0  0  0
   -0.8021   -1.2311    0.0900 C   0  0  0  0  0  0  0  0  0  0  0  0
   -1.7238   -0.2116   -0.1352 C   0  0  0  0  0  0  0  0  0  0  0  0
   -1.4594    1.1255   -0.2906 N   0  0  0  0  0  0  0  0  0  0  0  0
   -0.1776    1.6037   -0.2334 C   0  0  0  0  0  0  0  0  0  0  0  0
    0.1233    3.4518   -0.4542 Br  0  0  0  0  0  0  0  0  0  0  0  0
    0.8694    0.6753   -0.0086 C   0  0  0  0  0  0  0  0  0  0  0  0
    2.1891    0.9236    0.0832 N   0  0  0  0  0  0  0  0  0  0  0  0
    2.9357   -0.5312    0.3506 S   0  0  0  0  0  0  0  0  0  0  0  0
    1.6276   -1.5480    0.3636 N   0  0  0  0  0  0  0  0  0  0  0  0
    0.5367   -0.7885    0.1574 C   0  0  0  0  0  0  0  0  0  0  0  0
   -2.7862   -0.4474   -0.2043 H   0  0  0  0  0  0  0  0  0  0  0  0
  1  2  1  0
  2  3  2  0
  3  4  1  0
  4  5  2  0
  5  6  1  0
  5  7  1  0
  7  8  2  0
  8  9  1  0
  9 10  1  0
 10 11  2  0
 11  2  1  0
 11  7  1  0
  3 12  1  0
M  END
