
     RDKit          3D

 15 16  0  0  0  0  0  0  0  0999 V2000
   -0.0376    3.5693    0.1574 Br  0  0  0  0  0  0  0  0  0  0  0  0
   -0.5745    1.7566    0.1086 C   0  0  0  0  0  0  0  0  0  0  0  0
   -1.9030    1.4777    0.1708 N   0  0  0  0  0  0  0  0  0  0  0  0
   -2.3052    0.1859    0.1371 C   0  0  0  0  0  0  0  0  0  0  0  0
   -1.4569   -0.9066    0.0421 C   0  0  0  0  0  0  0  0  0  0  0  0
   -2.1133   -2.6677    0.0022 Br  0  0  0  0  0  0  0  0  0  0  0  0
   -0.0974   -0.6055   -0.0209 C   0  0  0  0  0  0  0  0  0  0  0  0
    1.0037   -1.4278   -0.1183 N   0  0  0  0  0  0  0  0  0  0  0  0
    2.1498   -0.6812   -0.1499 C   0  0  0  0  0  0  0  0  0  0  0  0
    1.7908    0.6449   -0.0722 C   0  0  0  0  0  0  0  0  0  0  0  0
    0.3671    0.7146    0.0105 C   0  0  0  0  0  0  0  0  0  0  0  0
   -3.3829    0.0519    0.1915 H   0  0  0  0  0  0  0  0  0  0  0  0
    0.9605   -2.4381   -0.1598 H   0  0  0  0  0  0  0  0  0  0  0  0
    3.1199   -1.1551   -0.2248 H   0  0  0  0  0  0  0  0  0  0  0  0
    2.4790    1.4812   -0.0743 H   0  0  0  0  0  0  0  0  0  0  0  0
  1  2  1  0
  2  3  2  0
  3  4  1  0
  4  5  2  0
  5  6  1  0
  5  7  1  0
  7  8  1  0
  8  9  1  0
  9 10  2  0
 10 11  1  0
 11  2  1  0
 11  7  2  0
  4 12  1  0
  8 13  1  0
  9 14  1  0
 10 15  1  0
M  END
