
     RDKit          3D

 63 64  0  0  0  0  0  0  0  0999 V2000
    4.8565    4.7894    0.2556 C   0  0  0  0  0  0  0  0  0  0  0  0
    5.7396    3.6172   -0.1489 C   0  0  0  0  0  0  0  0  0  0  0  0
    5.0060    2.2724   -0.1714 C   0  0  0  0  0  0  0  0  0  0  0  0
    4.4974    1.8452    1.2076 C   0  0  0  0  0  0  0  0  0  0  0  0
    3.9374    0.4202    1.2373 C   0  0  0  0  0  0  0  0  0  0  0  0
    2.7126    0.2189    0.3409 C   0  0  0  0  0  0  0  0  0  0  0  0
    2.0711   -1.1425    0.6007 C   0  0  0  0  0  0  0  0  0  0  0  0
    0.8814   -1.4040   -0.3223 C   0  0  0  0  0  0  0  0  0  0  0  0
    0.2071   -2.5803    0.1548 O   0  0  0  0  0  0  0  0  0  0  0  0
   -0.0792   -3.4659   -0.8632 C   0  0  0  0  0  0  0  0  0  0  0  0
    0.6229   -4.6904   -0.8705 C   0  0  0  0  0  0  0  0  0  0  0  0
    0.3234   -5.5842   -1.9326 C   0  0  0  0  0  0  0  0  0  0  0  0
    0.8762   -6.7911   -2.1493 N   0  0  0  0  0  0  0  0  0  0  0  0
    0.1819   -7.4051   -3.5215 S   0  0  0  0  0  0  0  0  0  0  0  0
   -0.8561   -6.1763   -3.9113 N   0  0  0  0  0  0  0  0  0  0  0  0
   -0.7088   -5.2199   -2.9771 C   0  0  0  0  0  0  0  0  0  0  0  0
   -1.4073   -3.9848   -2.9054 C   0  0  0  0  0  0  0  0  0  0  0  0
   -1.0917   -3.1462   -1.8149 C   0  0  0  0  0  0  0  0  0  0  0  0
   -1.7725   -1.9491   -1.7261 O   0  0  0  0  0  0  0  0  0  0  0  0
   -2.6046   -1.8711   -0.5574 C   0  0  0  0  0  0  0  0  0  0  0  0
   -4.0093   -1.4571   -1.0022 C   0  0  0  0  0  0  0  0  0  0  0  0
   -4.9384   -1.1353    0.1703 C   0  0  0  0  0  0  0  0  0  0  0  0
   -5.1096    0.3645    0.4406 C   0  0  0  0  0  0  0  0  0  0  0  0
   -3.8258    1.0736    0.8817 C   0  0  0  0  0  0  0  0  0  0  0  0
   -4.0945    2.5467    1.2059 C   0  0  0  0  0  0  0  0  0  0  0  0
   -2.8559    3.3023    1.6967 C   0  0  0  0  0  0  0  0  0  0  0  0
   -1.7369    3.3818    0.6696 C   0  0  0  0  0  0  0  0  0  0  0  0
   -2.7042   -3.5136   -4.2030 Br  0  0  0  0  0  0  0  0  0  0  0  0
    1.9074   -5.1322    0.4501 Br  0  0  0  0  0  0  0  0  0  0  0  0
    5.4077    5.7295    0.1510 H   0  0  0  0  0  0  0  0  0  0  0  0
    3.9601    4.8479   -0.3722 H   0  0  0  0  0  0  0  0  0  0  0  0
    4.5462    4.7068    1.3026 H   0  0  0  0  0  0  0  0  0  0  0  0
    6.5941    3.5618    0.5361 H   0  0  0  0  0  0  0  0  0  0  0  0
    6.1475    3.8075   -1.1474 H   0  0  0  0  0  0  0  0  0  0  0  0
    5.7033    1.5119   -0.5432 H   0  0  0  0  0  0  0  0  0  0  0  0
    4.1783    2.3231   -0.8878 H   0  0  0  0  0  0  0  0  0  0  0  0
    5.3302    1.8947    1.9247 H   0  0  0  0  0  0  0  0  0  0  0  0
    3.7279    2.5422    1.5670 H   0  0  0  0  0  0  0  0  0  0  0  0
    4.7226   -0.2909    0.9468 H   0  0  0  0  0  0  0  0  0  0  0  0
    3.6720    0.1836    2.2760 H   0  0  0  0  0  0  0  0  0  0  0  0
    1.9769    1.0103    0.5312 H   0  0  0  0  0  0  0  0  0  0  0  0
    3.0034    0.2891   -0.7141 H   0  0  0  0  0  0  0  0  0  0  0  0
    2.8129   -1.9406    0.4621 H   0  0  0  0  0  0  0  0  0  0  0  0
    1.7486   -1.2124    1.6492 H   0  0  0  0  0  0  0  0  0  0  0  0
    1.2349   -1.5094   -1.3572 H   0  0  0  0  0  0  0  0  0  0  0  0
    0.1749   -0.5664   -0.2746 H   0  0  0  0  0  0  0  0  0  0  0  0
   -2.1715   -1.1167    0.1084 H   0  0  0  0  0  0  0  0  0  0  0  0
   -2.6588   -2.8228   -0.0095 H   0  0  0  0  0  0  0  0  0  0  0  0
   -4.4356   -2.2945   -1.5711 H   0  0  0  0  0  0  0  0  0  0  0  0
   -3.9587   -0.6206   -1.7092 H   0  0  0  0  0  0  0  0  0  0  0  0
   -5.9323   -1.5345   -0.0686 H   0  0  0  0  0  0  0  0  0  0  0  0
   -4.6113   -1.6489    1.0813 H   0  0  0  0  0  0  0  0  0  0  0  0
   -5.8751    0.4867    1.2196 H   0  0  0  0  0  0  0  0  0  0  0  0
   -5.5069    0.8492   -0.4619 H   0  0  0  0  0  0  0  0  0  0  0  0
   -3.4085    0.5754    1.7652 H   0  0  0  0  0  0  0  0  0  0  0  0
   -3.0808    1.0097    0.0816 H   0  0  0  0  0  0  0  0  0  0  0  0
   -4.8613    2.6104    1.9847 H   0  0  0  0  0  0  0  0  0  0  0  0
   -4.5009    3.0534    0.3220 H   0  0  0  0  0  0  0  0  0  0  0  0
   -2.4734    2.8383    2.6145 H   0  0  0  0  0  0  0  0  0  0  0  0
   -3.1616    4.3228    1.9614 H   0  0  0  0  0  0  0  0  0  0  0  0
   -2.1026    3.7712   -0.2863 H   0  0  0  0  0  0  0  0  0  0  0  0
   -1.2837    2.4003    0.4943 H   0  0  0  0  0  0  0  0  0  0  0  0
   -0.9444    4.0486    1.0274 H   0  0  0  0  0  0  0  0  0  0  0  0
  1  2  1  0
  2  3  1  0
  3  4  1  0
  4  5  1  0
  5  6  1  0
  6  7  1  0
  7  8  1  0
  8  9  1  0
  9 10  1  0
 10 11  2  0
 11 12  1  0
 12 13  2  0
 13 14  1  0
 14 15  1  0
 15 16  2  0
 16 17  1  0
 17 18  2  0
 18 19  1  0
 19 20  1  0
 20 21  1  0
 21 22  1  0
 22 23  1  0
 23 24  1  0
 24 25  1  0
 25 26  1  0
 26 27  1  0
 17 28  1  0
 11 29  1  0
 18 10  1  0
 16 12  1  0
  1 30  1  0
  1 31  1  0
  1 32  1  0
  2 33  1  0
  2 34  1  0
  3 35  1  0
  3 36  1  0
  4 37  1  0
  4 38  1  0
  5 39  1  0
  5 40  1  0
  6 41  1  0
  6 42  1  0
  7 43  1  0
  7 44  1  0
  8 45  1  0
  8 46  1  0
 20 47  1  0
 20 48  1  0
 21 49  1  0
 21 50  1  0
 22 51  1  0
 22 52  1  0
 23 53  1  0
 23 54  1  0
 24 55  1  0
 24 56  1  0
 25 57  1  0
 25 58  1  0
 26 59  1  0
 26 60  1  0
 27 61  1  0
 27 62  1  0
 27 63  1  0
M  END
