
     RDKit          3D

 87 88  0  0  0  0  0  0  0  0999 V2000
   -9.5268    5.1022    0.8413 C   0  0  0  0  0  0  0  0  0  0  0  0
   -8.2819    5.1982   -0.0265 C   0  0  0  0  0  0  0  0  0  0  0  0
   -7.7840    3.8444   -0.5399 C   0  0  0  0  0  0  0  0  0  0  0  0
   -7.2775    2.9229    0.5732 C   0  0  0  0  0  0  0  0  0  0  0  0
   -6.7698    1.5690    0.0614 C   0  0  0  0  0  0  0  0  0  0  0  0
   -5.4879    1.6767   -0.7687 C   0  0  0  0  0  0  0  0  0  0  0  0
   -4.9614    0.3233   -1.2603 C   0  0  0  0  0  0  0  0  0  0  0  0
   -4.4196   -0.5626   -0.1357 C   0  0  0  0  0  0  0  0  0  0  0  0
   -3.8450   -1.8958   -0.6303 C   0  0  0  0  0  0  0  0  0  0  0  0
   -2.5847   -1.7328   -1.4841 C   0  0  0  0  0  0  0  0  0  0  0  0
   -1.9285   -3.0683   -1.8552 C   0  0  0  0  0  0  0  0  0  0  0  0
   -1.2672   -3.7961   -0.6847 C   0  0  0  0  0  0  0  0  0  0  0  0
   -0.2663   -2.9398   -0.1156 O   0  0  0  0  0  0  0  0  0  0  0  0
    0.3694   -3.5573    0.9435 C   0  0  0  0  0  0  0  0  0  0  0  0
   -0.0158   -3.1862    2.2496 C   0  0  0  0  0  0  0  0  0  0  0  0
    0.6332   -3.8634    3.3146 C   0  0  0  0  0  0  0  0  0  0  0  0
    0.4188   -3.6870    4.6303 N   0  0  0  0  0  0  0  0  0  0  0  0
    1.4188   -4.7341    5.4324 S   0  0  0  0  0  0  0  0  0  0  0  0
    2.1774   -5.4645    4.1559 N   0  0  0  0  0  0  0  0  0  0  0  0
    1.6835   -4.9136    3.0327 C   0  0  0  0  0  0  0  0  0  0  0  0
    2.0551   -5.2246    1.6976 C   0  0  0  0  0  0  0  0  0  0  0  0
    1.4131   -4.4910    0.6759 C   0  0  0  0  0  0  0  0  0  0  0  0
    1.7848   -4.7646   -0.6269 O   0  0  0  0  0  0  0  0  0  0  0  0
    2.4180   -3.6535   -1.2860 C   0  0  0  0  0  0  0  0  0  0  0  0
    3.9039   -3.5759   -0.9338 C   0  0  0  0  0  0  0  0  0  0  0  0
    4.6561   -2.4702   -1.6765 C   0  0  0  0  0  0  0  0  0  0  0  0
    4.1192   -1.0492   -1.4736 C   0  0  0  0  0  0  0  0  0  0  0  0
    3.9913   -0.5874   -0.0183 C   0  0  0  0  0  0  0  0  0  0  0  0
    5.2892   -0.5992    0.7948 C   0  0  0  0  0  0  0  0  0  0  0  0
    6.4390    0.2370    0.2239 C   0  0  0  0  0  0  0  0  0  0  0  0
    6.1205    1.7070   -0.0715 C   0  0  0  0  0  0  0  0  0  0  0  0
    5.7165    2.5079    1.1654 C   0  0  0  0  0  0  0  0  0  0  0  0
    5.2916    3.9508    0.8652 C   0  0  0  0  0  0  0  0  0  0  0  0
    6.3947    4.8419    0.2869 C   0  0  0  0  0  0  0  0  0  0  0  0
    6.3532    4.9426   -1.2318 C   0  0  0  0  0  0  0  0  0  0  0  0
    3.3526   -6.5552    1.3299 Br  0  0  0  0  0  0  0  0  0  0  0  0
   -1.3276   -1.8620    2.5811 Br  0  0  0  0  0  0  0  0  0  0  0  0
   -9.8931    6.1050    1.0839 H   0  0  0  0  0  0  0  0  0  0  0  0
  -10.3280    4.5658    0.3232 H   0  0  0  0  0  0  0  0  0  0  0  0
   -9.3186    4.5894    1.7850 H   0  0  0  0  0  0  0  0  0  0  0  0
   -8.5104    5.8322   -0.8916 H   0  0  0  0  0  0  0  0  0  0  0  0
   -7.4846    5.7028    0.5316 H   0  0  0  0  0  0  0  0  0  0  0  0
   -6.9757    4.0406   -1.2526 H   0  0  0  0  0  0  0  0  0  0  0  0
   -8.5851    3.3456   -1.0991 H   0  0  0  0  0  0  0  0  0  0  0  0
   -6.4820    3.4241    1.1383 H   0  0  0  0  0  0  0  0  0  0  0  0
   -8.0917    2.7251    1.2799 H   0  0  0  0  0  0  0  0  0  0  0  0
   -7.5547    1.0793   -0.5274 H   0  0  0  0  0  0  0  0  0  0  0  0
   -6.5872    0.9348    0.9355 H   0  0  0  0  0  0  0  0  0  0  0  0
   -4.7087    2.1847   -0.1876 H   0  0  0  0  0  0  0  0  0  0  0  0
   -5.6774    2.2948   -1.6530 H   0  0  0  0  0  0  0  0  0  0  0  0
   -5.7531   -0.2070   -1.8029 H   0  0  0  0  0  0  0  0  0  0  0  0
   -4.1630    0.5268   -1.9825 H   0  0  0  0  0  0  0  0  0  0  0  0
   -5.2248   -0.7914    0.5715 H   0  0  0  0  0  0  0  0  0  0  0  0
   -3.6499   -0.0195    0.4257 H   0  0  0  0  0  0  0  0  0  0  0  0
   -4.6089   -2.4376   -1.2005 H   0  0  0  0  0  0  0  0  0  0  0  0
   -3.6207   -2.5055    0.2506 H   0  0  0  0  0  0  0  0  0  0  0  0
   -2.8472   -1.2245   -2.4191 H   0  0  0  0  0  0  0  0  0  0  0  0
   -1.8619   -1.0890   -0.9699 H   0  0  0  0  0  0  0  0  0  0  0  0
   -1.1570   -2.8568   -2.6062 H   0  0  0  0  0  0  0  0  0  0  0  0
   -2.6657   -3.7280   -2.3265 H   0  0  0  0  0  0  0  0  0  0  0  0
   -0.8116   -4.7182   -1.0649 H   0  0  0  0  0  0  0  0  0  0  0  0
   -2.0117   -4.0686    0.0722 H   0  0  0  0  0  0  0  0  0  0  0  0
    2.3116   -3.8332   -2.3621 H   0  0  0  0  0  0  0  0  0  0  0  0
    1.9122   -2.7071   -1.0764 H   0  0  0  0  0  0  0  0  0  0  0  0
    4.0277   -3.4465    0.1468 H   0  0  0  0  0  0  0  0  0  0  0  0
    4.3735   -4.5395   -1.1666 H   0  0  0  0  0  0  0  0  0  0  0  0
    4.6398   -2.6924   -2.7505 H   0  0  0  0  0  0  0  0  0  0  0  0
    5.7107   -2.5064   -1.3783 H   0  0  0  0  0  0  0  0  0  0  0  0
    4.7657   -0.3548   -2.0228 H   0  0  0  0  0  0  0  0  0  0  0  0
    3.1344   -0.9647   -1.9491 H   0  0  0  0  0  0  0  0  0  0  0  0
    3.5693    0.4246   -0.0121 H   0  0  0  0  0  0  0  0  0  0  0  0
    3.2533   -1.2118    0.4992 H   0  0  0  0  0  0  0  0  0  0  0  0
    5.0631   -0.2544    1.8109 H   0  0  0  0  0  0  0  0  0  0  0  0
    5.6382   -1.6325    0.9094 H   0  0  0  0  0  0  0  0  0  0  0  0
    6.7971   -0.2306   -0.7012 H   0  0  0  0  0  0  0  0  0  0  0  0
    7.2790    0.1919    0.9288 H   0  0  0  0  0  0  0  0  0  0  0  0
    5.3382    1.7774   -0.8347 H   0  0  0  0  0  0  0  0  0  0  0  0
    7.0238    2.1501   -0.5056 H   0  0  0  0  0  0  0  0  0  0  0  0
    6.5450    2.5135    1.8839 H   0  0  0  0  0  0  0  0  0  0  0  0
    4.8730    2.0190    1.6645 H   0  0  0  0  0  0  0  0  0  0  0  0
    4.9718    4.3919    1.8181 H   0  0  0  0  0  0  0  0  0  0  0  0
    4.4081    3.9539    0.2153 H   0  0  0  0  0  0  0  0  0  0  0  0
    7.3839    4.5024    0.6148 H   0  0  0  0  0  0  0  0  0  0  0  0
    6.2624    5.8554    0.6851 H   0  0  0  0  0  0  0  0  0  0  0  0
    5.3884    5.3361   -1.5704 H   0  0  0  0  0  0  0  0  0  0  0  0
    7.1346    5.6227   -1.5847 H   0  0  0  0  0  0  0  0  0  0  0  0
    6.5121    3.9744   -1.7123 H   0  0  0  0  0  0  0  0  0  0  0  0
  1  2  1  0
  2  3  1  0
  3  4  1  0
  4  5  1  0
  5  6  1  0
  6  7  1  0
  7  8  1  0
  8  9  1  0
  9 10  1  0
 10 11  1  0
 11 12  1  0
 12 13  1  0
 13 14  1  0
 14 15  2  0
 15 16  1  0
 16 17  2  0
 17 18  1  0
 18 19  1  0
 19 20  2  0
 20 21  1  0
 21 22  2  0
 22 23  1  0
 23 24  1  0
 24 25  1  0
 25 26  1  0
 26 27  1  0
 27 28  1  0
 28 29  1  0
 29 30  1  0
 30 31  1  0
 31 32  1  0
 32 33  1  0
 33 34  1  0
 34 35  1  0
 21 36  1  0
 15 37  1  0
 22 14  1  0
 20 16  1  0
  1 38  1  0
  1 39  1  0
  1 40  1  0
  2 41  1  0
  2 42  1  0
  3 43  1  0
  3 44  1  0
  4 45  1  0
  4 46  1  0
  5 47  1  0
  5 48  1  0
  6 49  1  0
  6 50  1  0
  7 51  1  0
  7 52  1  0
  8 53  1  0
  8 54  1  0
  9 55  1  0
  9 56  1  0
 10 57  1  0
 10 58  1  0
 11 59  1  0
 11 60  1  0
 12 61  1  0
 12 62  1  0
 24 63  1  0
 24 64  1  0
 25 65  1  0
 25 66  1  0
 26 67  1  0
 26 68  1  0
 27 69  1  0
 27 70  1  0
 28 71  1  0
 28 72  1  0
 29 73  1  0
 29 74  1  0
 30 75  1  0
 30 76  1  0
 31 77  1  0
 31 78  1  0
 32 79  1  0
 32 80  1  0
 33 81  1  0
 33 82  1  0
 34 83  1  0
 34 84  1  0
 35 85  1  0
 35 86  1  0
 35 87  1  0
M  END
