
     RDKit          3D

 15 16  0  0  0  0  0  0  0  0999 V2000
   -0.9247   -3.1016    0.4418 Br  0  0  0  0  0  0  0  0  0  0  0  0
   -0.8356   -1.2498    0.2233 C   0  0  0  0  0  0  0  0  0  0  0  0
   -1.9447   -0.4858    0.2451 C   0  0  0  0  0  0  0  0  0  0  0  0
   -1.8858    0.9542    0.0762 C   0  0  0  0  0  0  0  0  0  0  0  0
   -0.6938    1.5516   -0.1080 C   0  0  0  0  0  0  0  0  0  0  0  0
   -0.5626    3.4032   -0.3306 Br  0  0  0  0  0  0  0  0  0  0  0  0
    0.4766    0.7616   -0.1329 N   0  0  0  0  0  0  0  0  0  0  0  0
    1.7676    1.1768   -0.3061 N   0  0  0  0  0  0  0  0  0  0  0  0
    2.5041    0.0699   -0.2527 C   0  0  0  0  0  0  0  0  0  0  0  0
    1.7382   -1.0830   -0.0472 C   0  0  0  0  0  0  0  0  0  0  0  0
    0.4377   -0.6349    0.0291 C   0  0  0  0  0  0  0  0  0  0  0  0
   -2.9275   -0.9261    0.3911 H   0  0  0  0  0  0  0  0  0  0  0  0
   -2.8151    1.5141    0.1036 H   0  0  0  0  0  0  0  0  0  0  0  0
    3.5778    0.1521   -0.3670 H   0  0  0  0  0  0  0  0  0  0  0  0
    2.0879   -2.1025    0.0341 H   0  0  0  0  0  0  0  0  0  0  0  0
  1  2  1  0
  2  3  2  0
  3  4  1  0
  4  5  2  0
  5  6  1  0
  5  7  1  0
  7  8  1  0
  8  9  2  0
  9 10  1  0
 10 11  2  0
 11  2  1  0
 11  7  1  0
  3 12  1  0
  4 13  1  0
  9 14  1  0
 10 15  1  0
M  END
