
     RDKit          3D

 17 18  0  0  0  0  0  0  0  0999 V2000
   -2.1894   -0.9206    0.4110 N   0  0  0  0  0  0  0  0  0  0  0  0
   -0.8575   -0.5509    0.0419 C   0  0  0  0  0  0  0  0  0  0  0  0
   -0.4663    0.8098    0.2979 C   0  0  0  0  0  0  0  0  0  0  0  0
   -1.3891    1.6203    1.0314 N   0  0  0  0  0  0  0  0  0  0  0  0
    0.8348    1.2881    0.0069 C   0  0  0  0  0  0  0  0  0  0  0  0
    1.3716    3.0478    0.4637 Br  0  0  0  0  0  0  0  0  0  0  0  0
    1.7041    0.4071   -0.6894 C   0  0  0  0  0  0  0  0  0  0  0  0
    2.9608    0.6669   -1.0934 N   0  0  0  0  0  0  0  0  0  0  0  0
    3.5115   -0.6866   -1.8711 S   0  0  0  0  0  0  0  0  0  0  0  0
    2.1901   -1.6740   -1.7333 N   0  0  0  0  0  0  0  0  0  0  0  0
    1.2495   -0.9846   -1.0626 C   0  0  0  0  0  0  0  0  0  0  0  0
   -0.0452   -1.4425   -0.7007 C   0  0  0  0  0  0  0  0  0  0  0  0
   -0.6300   -3.1928   -1.1340 Br  0  0  0  0  0  0  0  0  0  0  0  0
   -2.3081   -1.9325    0.4365 H   0  0  0  0  0  0  0  0  0  0  0  0
   -2.4292   -0.4961    1.3077 H   0  0  0  0  0  0  0  0  0  0  0  0
   -1.1661    2.6118    0.9549 H   0  0  0  0  0  0  0  0  0  0  0  0
   -2.3413    1.4289    0.7178 H   0  0  0  0  0  0  0  0  0  0  0  0
  1  2  1  0
  2  3  1  0
  3  4  1  0
  3  5  2  0
  5  6  1  0
  5  7  1  0
  7  8  2  0
  8  9  1  0
  9 10  1  0
 10 11  2  0
 11 12  1  0
 12 13  1  0
 12  2  2  0
 11  7  1  0
  1 14  1  0
  1 15  1  0
  4 16  1  0
  4 17  1  0
M  END
