
     RDKit          3D

 13 14  0  0  0  0  0  0  0  0999 V2000
    1.4944    3.0296    0.0518 Br  0  0  0  0  0  0  0  0  0  0  0  0
    0.5391    1.4031    0.0296 C   0  0  0  0  0  0  0  0  0  0  0  0
   -0.8669    1.4079    0.0817 C   0  0  0  0  0  0  0  0  0  0  0  0
   -1.6389    0.2231    0.0684 C   0  0  0  0  0  0  0  0  0  0  0  0
   -1.0659   -1.0602    0.0019 C   0  0  0  0  0  0  0  0  0  0  0  0
   -2.1680   -2.5911   -0.0114 Br  0  0  0  0  0  0  0  0  0  0  0  0
    0.3516   -1.1324   -0.0530 C   0  0  0  0  0  0  0  0  0  0  0  0
    1.1063   -2.2431   -0.1201 N   0  0  0  0  0  0  0  0  0  0  0  0
    2.6877   -1.7494   -0.1610 S   0  0  0  0  0  0  0  0  0  0  0  0
    2.4999   -0.1042   -0.0960 N   0  0  0  0  0  0  0  0  0  0  0  0
    1.1784    0.1365   -0.0387 C   0  0  0  0  0  0  0  0  0  0  0  0
   -1.3931    2.3619    0.1349 H   0  0  0  0  0  0  0  0  0  0  0  0
   -2.7246    0.3183    0.1119 H   0  0  0  0  0  0  0  0  0  0  0  0
  1  2  1  0
  2  3  2  0
  3  4  1  0
  4  5  2  0
  5  6  1  0
  5  7  1  0
  7  8  2  0
  8  9  1  0
  9 10  1  0
 10 11  2  0
 11  2  1  0
 11  7  1  0
  3 12  1  0
  4 13  1  0
M  END
