
     RDKit          3D

 87 88  0  0  0  0  0  0  0  0999 V2000
    7.6163    5.1169    1.5025 C   0  0  0  0  0  0  0  0  0  0  0  0
    7.2245    3.7052    1.9173 C   0  0  0  0  0  0  0  0  0  0  0  0
    8.4360    2.7721    1.9268 C   0  0  0  0  0  0  0  0  0  0  0  0
    8.1512    1.3827    2.5042 C   0  0  0  0  0  0  0  0  0  0  0  0
    7.1888    0.5335    1.6658 C   0  0  0  0  0  0  0  0  0  0  0  0
    5.7500    0.5576    2.1951 C   0  0  0  0  0  0  0  0  0  0  0  0
    4.8084   -0.3533    1.4009 C   0  0  0  0  0  0  0  0  0  0  0  0
    4.4955    0.1768   -0.0014 C   0  0  0  0  0  0  0  0  0  0  0  0
    3.5971   -0.7916   -0.7751 C   0  0  0  0  0  0  0  0  0  0  0  0
    3.2538   -0.2406   -2.1599 C   0  0  0  0  0  0  0  0  0  0  0  0
    2.6090   -1.2604   -3.1064 C   0  0  0  0  0  0  0  0  0  0  0  0
    1.2214   -1.7482   -2.6940 C   0  0  0  0  0  0  0  0  0  0  0  0
    1.3189   -2.6398   -1.5738 O   0  0  0  0  0  0  0  0  0  0  0  0
    0.7278   -3.8676   -1.8034 C   0  0  0  0  0  0  0  0  0  0  0  0
    1.5620   -5.0065   -1.7472 C   0  0  0  0  0  0  0  0  0  0  0  0
    0.9514   -6.2583   -2.0264 C   0  0  0  0  0  0  0  0  0  0  0  0
    1.5535   -7.4618   -2.0468 N   0  0  0  0  0  0  0  0  0  0  0  0
    0.3951   -8.5763   -2.4560 S   0  0  0  0  0  0  0  0  0  0  0  0
   -0.9299   -7.5965   -2.6059 N   0  0  0  0  0  0  0  0  0  0  0  0
   -0.5233   -6.3399   -2.3503 C   0  0  0  0  0  0  0  0  0  0  0  0
   -1.3271   -5.1706   -2.3593 C   0  0  0  0  0  0  0  0  0  0  0  0
   -0.6751   -3.9576   -2.0456 C   0  0  0  0  0  0  0  0  0  0  0  0
   -1.4399   -2.8100   -2.0450 O   0  0  0  0  0  0  0  0  0  0  0  0
   -1.6559   -2.3015   -0.7196 C   0  0  0  0  0  0  0  0  0  0  0  0
   -3.1407   -1.9779   -0.5467 C   0  0  0  0  0  0  0  0  0  0  0  0
   -3.7213   -1.0645   -1.6308 C   0  0  0  0  0  0  0  0  0  0  0  0
   -3.1757    0.3665   -1.6335 C   0  0  0  0  0  0  0  0  0  0  0  0
   -3.4628    1.1839   -0.3671 C   0  0  0  0  0  0  0  0  0  0  0  0
   -4.9310    1.2352    0.0810 C   0  0  0  0  0  0  0  0  0  0  0  0
   -5.8719    1.8581   -0.9508 C   0  0  0  0  0  0  0  0  0  0  0  0
   -7.3638    1.7039   -0.6243 C   0  0  0  0  0  0  0  0  0  0  0  0
   -7.8362    2.4014    0.6560 C   0  0  0  0  0  0  0  0  0  0  0  0
   -7.8164    1.4894    1.8888 C   0  0  0  0  0  0  0  0  0  0  0  0
   -8.4012    2.1550    3.1377 C   0  0  0  0  0  0  0  0  0  0  0  0
   -7.5394    3.2903    3.6715 C   0  0  0  0  0  0  0  0  0  0  0  0
   -3.1725   -5.2496   -2.7742 Br  0  0  0  0  0  0  0  0  0  0  0  0
    3.4095   -4.8947   -1.3456 Br  0  0  0  0  0  0  0  0  0  0  0  0
    8.0700    5.1201    0.5069 H   0  0  0  0  0  0  0  0  0  0  0  0
    6.7337    5.7618    1.4731 H   0  0  0  0  0  0  0  0  0  0  0  0
    8.3340    5.5486    2.2077 H   0  0  0  0  0  0  0  0  0  0  0  0
    6.4687    3.3352    1.2151 H   0  0  0  0  0  0  0  0  0  0  0  0
    6.7649    3.7383    2.9131 H   0  0  0  0  0  0  0  0  0  0  0  0
    9.2358    3.2282    2.5268 H   0  0  0  0  0  0  0  0  0  0  0  0
    8.8279    2.6718    0.9048 H   0  0  0  0  0  0  0  0  0  0  0  0
    9.1110    0.8528    2.5498 H   0  0  0  0  0  0  0  0  0  0  0  0
    7.8005    1.4687    3.5387 H   0  0  0  0  0  0  0  0  0  0  0  0
    7.2286    0.8480    0.6171 H   0  0  0  0  0  0  0  0  0  0  0  0
    7.5391   -0.5068    1.6970 H   0  0  0  0  0  0  0  0  0  0  0  0
    5.7539    0.2161    3.2382 H   0  0  0  0  0  0  0  0  0  0  0  0
    5.3530    1.5773    2.2036 H   0  0  0  0  0  0  0  0  0  0  0  0
    3.8674   -0.4503    1.9583 H   0  0  0  0  0  0  0  0  0  0  0  0
    5.2390   -1.3599    1.3322 H   0  0  0  0  0  0  0  0  0  0  0  0
    4.0048    1.1554    0.0801 H   0  0  0  0  0  0  0  0  0  0  0  0
    5.4214    0.3254   -0.5686 H   0  0  0  0  0  0  0  0  0  0  0  0
    4.1142   -1.7516   -0.8806 H   0  0  0  0  0  0  0  0  0  0  0  0
    2.6808   -0.9704   -0.2050 H   0  0  0  0  0  0  0  0  0  0  0  0
    2.6013    0.6386   -2.0575 H   0  0  0  0  0  0  0  0  0  0  0  0
    4.1767    0.1117   -2.6391 H   0  0  0  0  0  0  0  0  0  0  0  0
    3.2837   -2.1162   -3.2203 H   0  0  0  0  0  0  0  0  0  0  0  0
    2.5230   -0.7852   -4.0887 H   0  0  0  0  0  0  0  0  0  0  0  0
    0.5919   -0.8999   -2.4047 H   0  0  0  0  0  0  0  0  0  0  0  0
    0.7579   -2.2292   -3.5646 H   0  0  0  0  0  0  0  0  0  0  0  0
   -1.3542   -3.0162    0.0601 H   0  0  0  0  0  0  0  0  0  0  0  0
   -1.0520   -1.3950   -0.5949 H   0  0  0  0  0  0  0  0  0  0  0  0
   -3.3102   -1.5530    0.4478 H   0  0  0  0  0  0  0  0  0  0  0  0
   -3.7035   -2.9188   -0.5795 H   0  0  0  0  0  0  0  0  0  0  0  0
   -4.8133   -1.0429   -1.5242 H   0  0  0  0  0  0  0  0  0  0  0  0
   -3.5387   -1.5071   -2.6171 H   0  0  0  0  0  0  0  0  0  0  0  0
   -2.0918    0.3471   -1.8015 H   0  0  0  0  0  0  0  0  0  0  0  0
   -3.5935    0.8946   -2.4991 H   0  0  0  0  0  0  0  0  0  0  0  0
   -3.1073    2.2093   -0.5293 H   0  0  0  0  0  0  0  0  0  0  0  0
   -2.8627    0.7858    0.4610 H   0  0  0  0  0  0  0  0  0  0  0  0
   -4.9699    1.8319    0.9996 H   0  0  0  0  0  0  0  0  0  0  0  0
   -5.2739    0.2277    0.3461 H   0  0  0  0  0  0  0  0  0  0  0  0
   -5.7105    1.3964   -1.9309 H   0  0  0  0  0  0  0  0  0  0  0  0
   -5.6293    2.9230   -1.0648 H   0  0  0  0  0  0  0  0  0  0  0  0
   -7.6336    0.6396   -0.6093 H   0  0  0  0  0  0  0  0  0  0  0  0
   -7.9144    2.1448   -1.4646 H   0  0  0  0  0  0  0  0  0  0  0  0
   -8.8750    2.7250    0.4996 H   0  0  0  0  0  0  0  0  0  0  0  0
   -7.2485    3.3112    0.8265 H   0  0  0  0  0  0  0  0  0  0  0  0
   -8.4066    0.5873    1.6760 H   0  0  0  0  0  0  0  0  0  0  0  0
   -6.7993    1.1504    2.1078 H   0  0  0  0  0  0  0  0  0  0  0  0
   -8.4978    1.3940    3.9238 H   0  0  0  0  0  0  0  0  0  0  0  0
   -9.4119    2.5272    2.9267 H   0  0  0  0  0  0  0  0  0  0  0  0
   -7.9512    3.6613    4.6163 H   0  0  0  0  0  0  0  0  0  0  0  0
   -7.5059    4.1315    2.9731 H   0  0  0  0  0  0  0  0  0  0  0  0
   -6.5145    2.9539    3.8592 H   0  0  0  0  0  0  0  0  0  0  0  0
  1  2  1  0
  2  3  1  0
  3  4  1  0
  4  5  1  0
  5  6  1  0
  6  7  1  0
  7  8  1  0
  8  9  1  0
  9 10  1  0
 10 11  1  0
 11 12  1  0
 12 13  1  0
 13 14  1  0
 14 15  2  0
 15 16  1  0
 16 17  2  0
 17 18  1  0
 18 19  1  0
 19 20  2  0
 20 21  1  0
 21 22  2  0
 22 23  1  0
 23 24  1  0
 24 25  1  0
 25 26  1  0
 26 27  1  0
 27 28  1  0
 28 29  1  0
 29 30  1  0
 30 31  1  0
 31 32  1  0
 32 33  1  0
 33 34  1  0
 34 35  1  0
 21 36  1  0
 15 37  1  0
 22 14  1  0
 20 16  1  0
  1 38  1  0
  1 39  1  0
  1 40  1  0
  2 41  1  0
  2 42  1  0
  3 43  1  0
  3 44  1  0
  4 45  1  0
  4 46  1  0
  5 47  1  0
  5 48  1  0
  6 49  1  0
  6 50  1  0
  7 51  1  0
  7 52  1  0
  8 53  1  0
  8 54  1  0
  9 55  1  0
  9 56  1  0
 10 57  1  0
 10 58  1  0
 11 59  1  0
 11 60  1  0
 12 61  1  0
 12 62  1  0
 24 63  1  0
 24 64  1  0
 25 65  1  0
 25 66  1  0
 26 67  1  0
 26 68  1  0
 27 69  1  0
 27 70  1  0
 28 71  1  0
 28 72  1  0
 29 73  1  0
 29 74  1  0
 30 75  1  0
 30 76  1  0
 31 77  1  0
 31 78  1  0
 32 79  1  0
 32 80  1  0
 33 81  1  0
 33 82  1  0
 34 83  1  0
 34 84  1  0
 35 85  1  0
 35 86  1  0
 35 87  1  0
M  END
