
     RDKit          3D

 24 26  0  0  0  0  0  0  0  0999 V2000
    2.7507    2.2404    2.3336 Br  0  0  0  0  0  0  0  0  0  0  0  0
    2.9897    0.9697    0.9478 C   0  0  0  0  0  0  0  0  0  0  0  0
    4.2893    0.6430    0.5486 C   0  0  0  0  0  0  0  0  0  0  0  0
    4.4931   -0.2859   -0.4654 C   0  0  0  0  0  0  0  0  0  0  0  0
    3.4071   -0.9028   -1.0965 C   0  0  0  0  0  0  0  0  0  0  0  0
    3.7500   -2.1599   -2.4712 Br  0  0  0  0  0  0  0  0  0  0  0  0
    2.1005   -0.5700   -0.6906 C   0  0  0  0  0  0  0  0  0  0  0  0
    0.5764   -1.1428   -1.2588 S   0  0  0  0  0  0  0  0  0  0  0  0
   -0.2561   -0.1384   -0.1411 C   0  0  0  0  0  0  0  0  0  0  0  0
   -1.7323   -0.1052   -0.0541 C   0  0  0  0  0  0  0  0  0  0  0  0
   -2.5788   -0.8801   -0.8650 C   0  0  0  0  0  0  0  0  0  0  0  0
   -3.9705   -0.8046   -0.7350 C   0  0  0  0  0  0  0  0  0  0  0  0
   -4.5414    0.0462    0.2073 C   0  0  0  0  0  0  0  0  0  0  0  0
   -3.7235    0.8230    1.0212 C   0  0  0  0  0  0  0  0  0  0  0  0
   -2.3339    0.7467    0.8904 C   0  0  0  0  0  0  0  0  0  0  0  0
    0.5343    0.5898    0.6209 N   0  0  0  0  0  0  0  0  0  0  0  0
    1.8729    0.3618    0.3273 C   0  0  0  0  0  0  0  0  0  0  0  0
    5.1463    1.1117    1.0271 H   0  0  0  0  0  0  0  0  0  0  0  0
    5.5111   -0.5293   -0.7644 H   0  0  0  0  0  0  0  0  0  0  0  0
   -2.1801   -1.5588   -1.6145 H   0  0  0  0  0  0  0  0  0  0  0  0
   -4.6076   -1.4129   -1.3724 H   0  0  0  0  0  0  0  0  0  0  0  0
   -5.6222    0.1037    0.3070 H   0  0  0  0  0  0  0  0  0  0  0  0
   -4.1618    1.4899    1.7593 H   0  0  0  0  0  0  0  0  0  0  0  0
   -1.7131    1.3646    1.5387 H   0  0  0  0  0  0  0  0  0  0  0  0
  1  2  1  0
  2  3  2  0
  3  4  1  0
  4  5  2  0
  5  6  1  0
  5  7  1  0
  7  8  1  0
  8  9  1  0
  9 10  1  0
 10 11  2  0
 11 12  1  0
 12 13  2  0
 13 14  1  0
 14 15  2  0
  9 16  2  0
 16 17  1  0
 17  2  1  0
 17  7  2  0
 15 10  1  0
  3 18  1  0
  4 19  1  0
 11 20  1  0
 12 21  1  0
 13 22  1  0
 14 23  1  0
 15 24  1  0
M  END
