
     RDKit          3D

 15 16  0  0  0  0  0  0  0  0999 V2000
   -1.0025    3.2247    0.2046 Br  0  0  0  0  0  0  0  0  0  0  0  0
   -0.1106    1.5615    0.0938 C   0  0  0  0  0  0  0  0  0  0  0  0
    1.2901    1.5294    0.0722 C   0  0  0  0  0  0  0  0  0  0  0  0
    1.9722    0.3129   -0.0093 C   0  0  0  0  0  0  0  0  0  0  0  0
    1.2738   -0.8969   -0.0709 C   0  0  0  0  0  0  0  0  0  0  0  0
    2.2039   -2.5335   -0.1806 Br  0  0  0  0  0  0  0  0  0  0  0  0
   -0.1221   -0.8448   -0.0482 C   0  0  0  0  0  0  0  0  0  0  0  0
   -1.0769   -1.8262   -0.0927 N   0  0  0  0  0  0  0  0  0  0  0  0
   -2.3392   -1.3668   -0.0478 N   0  0  0  0  0  0  0  0  0  0  0  0
   -2.1853   -0.0422    0.0282 C   0  0  0  0  0  0  0  0  0  0  0  0
   -0.8281    0.3535    0.0325 C   0  0  0  0  0  0  0  0  0  0  0  0
    1.8594    2.4553    0.1188 H   0  0  0  0  0  0  0  0  0  0  0  0
    3.0603    0.3166   -0.0244 H   0  0  0  0  0  0  0  0  0  0  0  0
   -0.9280   -2.8277   -0.1539 H   0  0  0  0  0  0  0  0  0  0  0  0
   -3.0670    0.5843    0.0777 H   0  0  0  0  0  0  0  0  0  0  0  0
  1  2  1  0
  2  3  2  0
  3  4  1  0
  4  5  2  0
  5  6  1  0
  5  7  1  0
  7  8  1  0
  8  9  1  0
  9 10  2  0
 10 11  1  0
 11  2  1  0
 11  7  2  0
  3 12  1  0
  4 13  1  0
  8 14  1  0
 10 15  1  0
M  END
