
     RDKit          3D

 50 51  0  0  0  0  0  0  0  0999 V2000
    6.0795    1.1433   -0.3449 C   0  0  0  0  0  0  0  0  0  0  0  0
    4.8619    0.2486   -0.1766 C   0  0  0  0  0  0  0  0  0  0  0  0
    3.6668    1.0270    0.3735 C   0  0  0  0  0  0  0  0  0  0  0  0
    2.4431    0.1217    0.5421 C   0  0  0  0  0  0  0  0  0  0  0  0
    1.2437    0.9055    1.0703 C   0  0  0  0  0  0  0  0  0  0  0  0
    0.0624    0.0492    1.5444 C   0  0  0  0  0  0  0  0  0  0  0  0
   -0.7132   -0.8104    0.5148 C   0  0  0  0  0  0  0  0  0  0  0  0
    0.0437   -2.1055    0.1466 C   0  0  0  0  0  0  0  0  0  0  0  0
   -0.8836   -3.2079   -0.3828 C   0  0  0  0  0  0  0  0  0  0  0  0
   -0.1045   -4.4911   -0.6766 C   0  0  0  0  0  0  0  0  0  0  0  0
   -1.0166   -5.5889   -1.2006 C   0  0  0  0  0  0  0  0  0  0  0  0
   -1.1378   -0.0289   -0.7433 C   0  0  0  0  0  0  0  0  0  0  0  0
   -2.0376    1.0772   -0.4601 N   0  0  0  0  0  0  0  0  0  0  0  0
   -1.6352    2.3472   -0.6011 N   0  0  0  0  0  0  0  0  0  0  0  0
   -2.7285    3.0493   -0.2549 C   0  0  0  0  0  0  0  0  0  0  0  0
   -2.9333    4.4427   -0.1868 C   0  0  0  0  0  0  0  0  0  0  0  0
   -1.5941    5.6969   -0.6004 Br  0  0  0  0  0  0  0  0  0  0  0  0
   -4.2202    4.8302    0.2173 C   0  0  0  0  0  0  0  0  0  0  0  0
   -4.5075    6.1396    0.3114 F   0  0  0  0  0  0  0  0  0  0  0  0
   -5.2466    3.9092    0.5357 C   0  0  0  0  0  0  0  0  0  0  0  0
   -6.4368    4.4085    0.9099 F   0  0  0  0  0  0  0  0  0  0  0  0
   -5.0795    2.5169    0.4795 C   0  0  0  0  0  0  0  0  0  0  0  0
   -6.4682    1.3244    0.9118 Br  0  0  0  0  0  0  0  0  0  0  0  0
   -3.7971    2.0900    0.0774 C   0  0  0  0  0  0  0  0  0  0  0  0
   -3.3031    0.8492   -0.0810 N   0  0  0  0  0  0  0  0  0  0  0  0
    6.3834    1.5767    0.6133 H   0  0  0  0  0  0  0  0  0  0  0  0
    5.8718    1.9614   -1.0420 H   0  0  0  0  0  0  0  0  0  0  0  0
    6.9220    0.5666   -0.7394 H   0  0  0  0  0  0  0  0  0  0  0  0
    4.6042   -0.1938   -1.1459 H   0  0  0  0  0  0  0  0  0  0  0  0
    5.1125   -0.5764    0.5004 H   0  0  0  0  0  0  0  0  0  0  0  0
    3.9326    1.4709    1.3406 H   0  0  0  0  0  0  0  0  0  0  0  0
    3.4216    1.8531   -0.3052 H   0  0  0  0  0  0  0  0  0  0  0  0
    2.6860   -0.6988    1.2272 H   0  0  0  0  0  0  0  0  0  0  0  0
    2.2006   -0.3136   -0.4313 H   0  0  0  0  0  0  0  0  0  0  0  0
    1.5706    1.5040    1.9310 H   0  0  0  0  0  0  0  0  0  0  0  0
    0.9173    1.6271    0.3147 H   0  0  0  0  0  0  0  0  0  0  0  0
   -0.6591    0.7371    2.0066 H   0  0  0  0  0  0  0  0  0  0  0  0
    0.4027   -0.5972    2.3640 H   0  0  0  0  0  0  0  0  0  0  0  0
   -1.6278   -1.1245    1.0388 H   0  0  0  0  0  0  0  0  0  0  0  0
    0.8058   -1.9017   -0.6114 H   0  0  0  0  0  0  0  0  0  0  0  0
    0.5633   -2.4903    1.0328 H   0  0  0  0  0  0  0  0  0  0  0  0
   -1.6651   -3.4174    0.3575 H   0  0  0  0  0  0  0  0  0  0  0  0
   -1.3850   -2.8754   -1.2980 H   0  0  0  0  0  0  0  0  0  0  0  0
    0.3930   -4.8422    0.2349 H   0  0  0  0  0  0  0  0  0  0  0  0
    0.6783   -4.2900   -1.4172 H   0  0  0  0  0  0  0  0  0  0  0  0
   -1.5054   -5.2822   -2.1308 H   0  0  0  0  0  0  0  0  0  0  0  0
   -1.7929   -5.8362   -0.4695 H   0  0  0  0  0  0  0  0  0  0  0  0
   -0.4395   -6.4965   -1.4034 H   0  0  0  0  0  0  0  0  0  0  0  0
   -0.2701    0.3682   -1.2816 H   0  0  0  0  0  0  0  0  0  0  0  0
   -1.6788   -0.6726   -1.4454 H   0  0  0  0  0  0  0  0  0  0  0  0
  1  2  1  0
  2  3  1  0
  3  4  1  0
  4  5  1  0
  5  6  1  0
  6  7  1  0
  7  8  1  0
  8  9  1  0
  9 10  1  0
 10 11  1  0
  7 12  1  0
 12 13  1  0
 13 14  1  0
 14 15  2  0
 15 16  1  0
 16 17  1  0
 16 18  2  0
 18 19  1  0
 18 20  1  0
 20 21  1  0
 20 22  2  0
 22 23  1  0
 22 24  1  0
 24 25  2  0
 25 13  1  0
 24 15  1  0
  1 26  1  0
  1 27  1  0
  1 28  1  0
  2 29  1  0
  2 30  1  0
  3 31  1  0
  3 32  1  0
  4 33  1  0
  4 34  1  0
  5 35  1  0
  5 36  1  0
  6 37  1  0
  6 38  1  0
  7 39  1  0
  8 40  1  0
  8 41  1  0
  9 42  1  0
  9 43  1  0
 10 44  1  0
 10 45  1  0
 11 46  1  0
 11 47  1  0
 11 48  1  0
 12 49  1  0
 12 50  1  0
M  END
