
     RDKit          3D

 13 14  0  0  0  0  0  0  0  0999 V2000
   -0.6324   -3.3020    0.2112 Br  0  0  0  0  0  0  0  0  0  0  0  0
   -0.4184   -1.4376    0.0866 C   0  0  0  0  0  0  0  0  0  0  0  0
   -1.5332   -0.5838   -0.0157 C   0  0  0  0  0  0  0  0  0  0  0  0
   -1.4128    0.8267   -0.1115 C   0  0  0  0  0  0  0  0  0  0  0  0
   -0.1687    1.4860   -0.1120 C   0  0  0  0  0  0  0  0  0  0  0  0
   -0.0635    3.3594   -0.2413 Br  0  0  0  0  0  0  0  0  0  0  0  0
    0.9646    0.6518   -0.0104 C   0  0  0  0  0  0  0  0  0  0  0  0
    2.2689    0.9589    0.0165 N   0  0  0  0  0  0  0  0  0  0  0  0
    2.9428   -0.2427    0.1271 O   0  0  0  0  0  0  0  0  0  0  0  0
    2.0746   -1.3170    0.1711 N   0  0  0  0  0  0  0  0  0  0  0  0
    0.8405   -0.8006    0.0883 C   0  0  0  0  0  0  0  0  0  0  0  0
   -2.5350   -1.0155   -0.0224 H   0  0  0  0  0  0  0  0  0  0  0  0
   -2.3274    1.4164   -0.1876 H   0  0  0  0  0  0  0  0  0  0  0  0
  1  2  1  0
  2  3  2  0
  3  4  1  0
  4  5  2  0
  5  6  1  0
  5  7  1  0
  7  8  2  0
  8  9  1  0
  9 10  1  0
 10 11  2  0
 11  2  1  0
 11  7  1  0
  3 12  1  0
  4 13  1  0
M  END
