
     RDKit          3D

 17 18  0  0  0  0  0  0  0  0999 V2000
   -2.8525   -0.0272   -1.3441 O   0  0  0  0  0  0  0  0  0  0  0  0
   -2.3437    0.4459   -0.3246 N   0  0  0  0  0  4  0  0  0  0  0  0
   -2.9301    0.9906    0.6142 O   0  0  0  0  0  1  0  0  0  0  0  0
   -0.9099    0.3351   -0.2102 C   0  0  0  0  0  0  0  0  0  0  0  0
   -0.3765   -0.8205    0.4116 C   0  0  0  0  0  0  0  0  0  0  0  0
   -1.2977   -1.8201    0.8947 N   0  0  0  0  0  4  0  0  0  0  0  0
   -1.6935   -1.6883    2.0557 O   0  0  0  0  0  0  0  0  0  0  0  0
   -1.6159   -2.7062    0.0974 O   0  0  0  0  0  1  0  0  0  0  0  0
    0.9994   -1.0528    0.5868 C   0  0  0  0  0  0  0  0  0  0  0  0
    1.7214   -2.5941    1.4166 Br  0  0  0  0  0  0  0  0  0  0  0  0
    1.8508   -0.0289    0.0884 C   0  0  0  0  0  0  0  0  0  0  0  0
    3.1925   -0.0130    0.1332 N   0  0  0  0  0  0  0  0  0  0  0  0
    3.6956    1.3946   -0.5785 S   0  0  0  0  0  0  0  0  0  0  0  0
    2.2350    2.0612   -0.9829 N   0  0  0  0  0  0  0  0  0  0  0  0
    1.2789    1.2100   -0.5783 C   0  0  0  0  0  0  0  0  0  0  0  0
   -0.1249    1.3828   -0.7237 C   0  0  0  0  0  0  0  0  0  0  0  0
   -0.8290    2.9309   -1.5563 Br  0  0  0  0  0  0  0  0  0  0  0  0
  1  2  2  0
  2  3  1  0
  2  4  1  0
  4  5  1  0
  5  6  1  0
  6  7  2  0
  6  8  1  0
  5  9  2  0
  9 10  1  0
  9 11  1  0
 11 12  2  0
 12 13  1  0
 13 14  1  0
 14 15  2  0
 15 16  1  0
 16 17  1  0
 16  4  2  0
 15 11  1  0
M  CHG  4   2   1   3  -1   6   1   8  -1
M  END
