
     RDKit          3D

 16 17  0  0  0  0  0  0  0  0999 V2000
   -0.1180    3.4465    0.0353 Br  0  0  0  0  0  0  0  0  0  0  0  0
   -0.5253    1.5973    0.0135 C   0  0  0  0  0  0  0  0  0  0  0  0
   -1.8677    1.1972    0.0010 C   0  0  0  0  0  0  0  0  0  0  0  0
   -2.2020   -0.1562   -0.0153 C   0  0  0  0  0  0  0  0  0  0  0  0
   -1.2058   -1.1361   -0.0194 C   0  0  0  0  0  0  0  0  0  0  0  0
   -1.6761   -2.9649   -0.0414 Br  0  0  0  0  0  0  0  0  0  0  0  0
    0.1331   -0.7243   -0.0068 C   0  0  0  0  0  0  0  0  0  0  0  0
    1.2977   -1.4614   -0.0073 N   0  0  0  0  0  0  0  0  0  0  0  0
    2.3855   -0.6319    0.0081 C   0  0  0  0  0  0  0  0  0  0  0  0
    1.9248    0.6644    0.0189 C   0  0  0  0  0  0  0  0  0  0  0  0
    0.4991    0.6259    0.0096 C   0  0  0  0  0  0  0  0  0  0  0  0
   -2.6608    1.9412    0.0039 H   0  0  0  0  0  0  0  0  0  0  0  0
   -3.2511   -0.4432   -0.0248 H   0  0  0  0  0  0  0  0  0  0  0  0
    1.3298   -2.4725   -0.0176 H   0  0  0  0  0  0  0  0  0  0  0  0
    3.3904   -1.0328    0.0102 H   0  0  0  0  0  0  0  0  0  0  0  0
    2.5463    1.5508    0.0320 H   0  0  0  0  0  0  0  0  0  0  0  0
  1  2  1  0
  2  3  2  0
  3  4  1  0
  4  5  2  0
  5  6  1  0
  5  7  1  0
  7  8  1  0
  8  9  1  0
  9 10  2  0
 10 11  1  0
 11  2  1  0
 11  7  2  0
  3 12  1  0
  4 13  1  0
  8 14  1  0
  9 15  1  0
 10 16  1  0
M  END
