
     RDKit          3D

 17 18  0  0  0  0  0  0  0  0999 V2000
   -2.2215   -1.0477   -1.9777 O   0  0  0  0  0  0  0  0  0  0  0  0
   -1.8775   -1.2688   -0.8137 N   0  0  0  0  0  4  0  0  0  0  0  0
   -2.4761   -1.9526    0.0207 O   0  0  0  0  0  1  0  0  0  0  0  0
   -0.6518   -0.6467   -0.3759 C   0  0  0  0  0  0  0  0  0  0  0  0
   -0.7266    0.6454    0.1997 C   0  0  0  0  0  0  0  0  0  0  0  0
   -2.0243    1.2650    0.3149 N   0  0  0  0  0  4  0  0  0  0  0  0
   -2.6496    1.0430    1.3550 O   0  0  0  0  0  0  0  0  0  0  0  0
   -2.3950    1.9478   -0.6434 O   0  0  0  0  0  1  0  0  0  0  0  0
    0.3897    1.3622    0.6665 C   0  0  0  0  0  0  0  0  0  0  0  0
    0.2991    3.0895    1.4370 Br  0  0  0  0  0  0  0  0  0  0  0  0
    1.6367    0.6943    0.5229 C   0  0  0  0  0  0  0  0  0  0  0  0
    2.8407    1.1625    0.8883 N   0  0  0  0  0  0  0  0  0  0  0  0
    3.9599    0.0039    0.5062 S   0  0  0  0  0  0  0  0  0  0  0  0
    2.9750   -1.1568   -0.1448 N   0  0  0  0  0  0  0  0  0  0  0  0
    1.7169   -0.6911   -0.0942 C   0  0  0  0  0  0  0  0  0  0  0  0
    0.5474   -1.3613   -0.5466 C   0  0  0  0  0  0  0  0  0  0  0  0
    0.6570   -3.0885   -1.3148 Br  0  0  0  0  0  0  0  0  0  0  0  0
  1  2  2  0
  2  3  1  0
  2  4  1  0
  4  5  1  0
  5  6  1  0
  6  7  2  0
  6  8  1  0
  5  9  2  0
  9 10  1  0
  9 11  1  0
 11 12  2  0
 12 13  1  0
 13 14  1  0
 14 15  2  0
 15 16  1  0
 16 17  1  0
 16  4  2  0
 15 11  1  0
M  CHG  4   2   1   3  -1   6   1   8  -1
M  END
