
     RDKit          3D

 38 39  0  0  0  0  0  0  0  0999 V2000
   -4.1555    2.6926    0.0953 C   0  0  0  0  0  0  0  0  0  0  0  0
   -3.4945    1.4929   -0.5655 C   0  0  0  0  0  0  0  0  0  0  0  0
   -3.1643    0.4037    0.4580 C   0  0  0  0  0  0  0  0  0  0  0  0
   -2.4664   -0.8112   -0.1701 C   0  0  0  0  0  0  0  0  0  0  0  0
   -0.9342   -0.8732    0.0456 C   0  0  0  0  0  0  0  0  0  0  0  0
   -0.3357   -2.1447   -0.6064 C   0  0  0  0  0  0  0  0  0  0  0  0
   -0.8981   -3.4510   -0.0610 C   0  0  0  0  0  0  0  0  0  0  0  0
   -0.2301    0.3903   -0.4932 C   0  0  0  0  0  0  0  0  0  0  0  0
    1.1976    0.4316   -0.2228 N   0  0  0  0  0  0  0  0  0  0  0  0
    1.6500    0.6192    1.0248 N   0  0  0  0  0  0  0  0  0  0  0  0
    2.9856    0.6020    0.8596 C   0  0  0  0  0  0  0  0  0  0  0  0
    4.0283    0.7375    1.8018 C   0  0  0  0  0  0  0  0  0  0  0  0
    3.7286    0.9898    3.6416 Br  0  0  0  0  0  0  0  0  0  0  0  0
    5.3347    0.6716    1.2806 C   0  0  0  0  0  0  0  0  0  0  0  0
    5.6039    0.4820   -0.1003 C   0  0  0  0  0  0  0  0  0  0  0  0
    4.5872    0.3440   -1.0646 C   0  0  0  0  0  0  0  0  0  0  0  0
    5.0006    0.0939   -2.8825 Br  0  0  0  0  0  0  0  0  0  0  0  0
    3.2649    0.4053   -0.5733 C   0  0  0  0  0  0  0  0  0  0  0  0
    2.0871    0.3114   -1.2179 N   0  0  0  0  0  0  0  0  0  0  0  0
   -5.0865    2.4034    0.5933 H   0  0  0  0  0  0  0  0  0  0  0  0
   -4.3936    3.4544   -0.6536 H   0  0  0  0  0  0  0  0  0  0  0  0
   -3.4924    3.1440    0.8402 H   0  0  0  0  0  0  0  0  0  0  0  0
   -2.5917    1.8263   -1.0860 H   0  0  0  0  0  0  0  0  0  0  0  0
   -4.1709    1.0881   -1.3277 H   0  0  0  0  0  0  0  0  0  0  0  0
   -2.5688    0.8108    1.2833 H   0  0  0  0  0  0  0  0  0  0  0  0
   -4.1099    0.0641    0.9008 H   0  0  0  0  0  0  0  0  0  0  0  0
   -2.9109   -1.6987    0.2958 H   0  0  0  0  0  0  0  0  0  0  0  0
   -2.6984   -0.8772   -1.2403 H   0  0  0  0  0  0  0  0  0  0  0  0
   -0.7508   -0.9355    1.1272 H   0  0  0  0  0  0  0  0  0  0  0  0
   -0.4883   -2.1146   -1.6922 H   0  0  0  0  0  0  0  0  0  0  0  0
    0.7476   -2.1670   -0.4410 H   0  0  0  0  0  0  0  0  0  0  0  0
   -1.9412   -3.5962   -0.3558 H   0  0  0  0  0  0  0  0  0  0  0  0
   -0.8339   -3.4820    1.0310 H   0  0  0  0  0  0  0  0  0  0  0  0
   -0.3276   -4.2973   -0.4577 H   0  0  0  0  0  0  0  0  0  0  0  0
   -0.3683    0.4802   -1.5773 H   0  0  0  0  0  0  0  0  0  0  0  0
   -0.6324    1.2972   -0.0302 H   0  0  0  0  0  0  0  0  0  0  0  0
    6.1823    0.7695    1.9597 H   0  0  0  0  0  0  0  0  0  0  0  0
    6.6460    0.4429   -0.4191 H   0  0  0  0  0  0  0  0  0  0  0  0
  1  2  1  0
  2  3  1  0
  3  4  1  0
  4  5  1  0
  5  6  1  0
  6  7  1  0
  5  8  1  0
  8  9  1  0
  9 10  1  0
 10 11  2  0
 11 12  1  0
 12 13  1  0
 12 14  2  0
 14 15  1  0
 15 16  2  0
 16 17  1  0
 16 18  1  0
 18 19  2  0
 19  9  1  0
 18 11  1  0
  1 20  1  0
  1 21  1  0
  1 22  1  0
  2 23  1  0
  2 24  1  0
  3 25  1  0
  3 26  1  0
  4 27  1  0
  4 28  1  0
  5 29  1  0
  6 30  1  0
  6 31  1  0
  7 32  1  0
  7 33  1  0
  7 34  1  0
  8 35  1  0
  8 36  1  0
 14 37  1  0
 15 38  1  0
M  END
