
     RDKit          3D

 24 26  0  0  0  0  0  0  0  0999 V2000
   -2.7636    2.7887   -1.6264 Br  0  0  0  0  0  0  0  0  0  0  0  0
   -2.9872    1.2562   -0.5338 C   0  0  0  0  0  0  0  0  0  0  0  0
   -4.2771    0.8960   -0.1324 C   0  0  0  0  0  0  0  0  0  0  0  0
   -4.4696   -0.2234    0.6690 C   0  0  0  0  0  0  0  0  0  0  0  0
   -3.3815   -1.0002    1.0825 C   0  0  0  0  0  0  0  0  0  0  0  0
   -3.7087   -2.5135    2.1738 Br  0  0  0  0  0  0  0  0  0  0  0  0
   -2.0846   -0.6330    0.6754 C   0  0  0  0  0  0  0  0  0  0  0  0
   -0.5608   -1.3683    1.0090 S   0  0  0  0  0  0  0  0  0  0  0  0
    0.2566   -0.1746    0.0828 C   0  0  0  0  0  0  0  0  0  0  0  0
    1.7257   -0.1747   -0.0887 C   0  0  0  0  0  0  0  0  0  0  0  0
    2.5771   -1.1365    0.4811 C   0  0  0  0  0  0  0  0  0  0  0  0
    3.9617   -1.0831    0.2822 C   0  0  0  0  0  0  0  0  0  0  0  0
    4.5204   -0.0682   -0.4894 C   0  0  0  0  0  0  0  0  0  0  0  0
    3.6973    0.8951   -1.0636 C   0  0  0  0  0  0  0  0  0  0  0  0
    2.3149    0.8407   -0.8642 C   0  0  0  0  0  0  0  0  0  0  0  0
   -0.5386    0.7290   -0.4531 N   0  0  0  0  0  0  0  0  0  0  0  0
   -1.8685    0.4893   -0.1309 C   0  0  0  0  0  0  0  0  0  0  0  0
   -5.1356    1.4871   -0.4435 H   0  0  0  0  0  0  0  0  0  0  0  0
   -5.4802   -0.4903    0.9729 H   0  0  0  0  0  0  0  0  0  0  0  0
    2.1879   -1.9476    1.0910 H   0  0  0  0  0  0  0  0  0  0  0  0
    4.6028   -1.8374    0.7321 H   0  0  0  0  0  0  0  0  0  0  0  0
    5.5957   -0.0281   -0.6430 H   0  0  0  0  0  0  0  0  0  0  0  0
    4.1261    1.6908   -1.6675 H   0  0  0  0  0  0  0  0  0  0  0  0
    1.6899    1.6060   -1.3238 H   0  0  0  0  0  0  0  0  0  0  0  0
  1  2  1  0
  2  3  2  0
  3  4  1  0
  4  5  2  0
  5  6  1  0
  5  7  1  0
  7  8  1  0
  8  9  1  0
  9 10  1  0
 10 11  2  0
 11 12  1  0
 12 13  2  0
 13 14  1  0
 14 15  2  0
  9 16  2  0
 16 17  1  0
 17  2  1  0
 17  7  2  0
 15 10  1  0
  3 18  1  0
  4 19  1  0
 11 20  1  0
 12 21  1  0
 13 22  1  0
 14 23  1  0
 15 24  1  0
M  END
