
     RDKit          3D

 17 18  0  0  0  0  0  0  0  0999 V2000
    2.1754    2.7016   -0.3000 Br  0  0  0  0  0  0  0  0  0  0  0  0
    1.5805    0.8963   -0.1552 C   0  0  0  0  0  0  0  0  0  0  0  0
    2.5714   -0.0782   -0.1622 C   0  0  0  0  0  0  0  0  0  0  0  0
    2.1732   -1.3883   -0.0593 C   0  0  0  0  0  0  0  0  0  0  0  0
    0.8851   -1.7657    0.0465 N   0  0  0  0  0  0  0  0  0  0  0  0
   -0.0906   -0.8267    0.0545 C   0  0  0  0  0  0  0  0  0  0  0  0
   -1.4409   -1.1932    0.1636 C   0  0  0  0  0  0  0  0  0  0  0  0
   -1.9434   -3.0283    0.3041 Br  0  0  0  0  0  0  0  0  0  0  0  0
   -2.4772   -0.2534    0.1756 C   0  0  0  0  0  0  0  0  0  0  0  0
   -2.1787    1.0955    0.0769 C   0  0  0  0  0  0  0  0  0  0  0  0
   -0.8489    1.4939   -0.0328 C   0  0  0  0  0  0  0  0  0  0  0  0
    0.2120    0.5507   -0.0462 C   0  0  0  0  0  0  0  0  0  0  0  0
    3.6234    0.1691   -0.2450 H   0  0  0  0  0  0  0  0  0  0  0  0
    2.8953   -2.1999   -0.0583 H   0  0  0  0  0  0  0  0  0  0  0  0
   -3.5134   -0.5704    0.2614 H   0  0  0  0  0  0  0  0  0  0  0  0
   -2.9742    1.8365    0.0849 H   0  0  0  0  0  0  0  0  0  0  0  0
   -0.6491    2.5607   -0.1085 H   0  0  0  0  0  0  0  0  0  0  0  0
  1  2  1  0
  2  3  2  0
  3  4  1  0
  4  5  2  0
  5  6  1  0
  6  7  2  0
  7  8  1  0
  7  9  1  0
  9 10  2  0
 10 11  1  0
 11 12  2  0
 12  2  1  0
 12  6  1  0
  3 13  1  0
  4 14  1  0
  9 15  1  0
 10 16  1  0
 11 17  1  0
M  END
