
     RDKit          3D

 14 16  0  0  0  0  0  0  0  0999 V2000
   -0.3886   -3.3607   -0.0660 Br  0  0  0  0  0  0  0  0  0  0  0  0
   -0.1851   -1.4680   -0.0288 C   0  0  0  0  0  0  0  0  0  0  0  0
   -1.2875   -0.5766   -0.0219 C   0  0  0  0  0  0  0  0  0  0  0  0
   -1.1192    0.8591    0.0062 C   0  0  0  0  0  0  0  0  0  0  0  0
    0.1595    1.4710    0.0288 C   0  0  0  0  0  0  0  0  0  0  0  0
    0.3993    3.3594    0.0659 Br  0  0  0  0  0  0  0  0  0  0  0  0
    1.2886    0.6095    0.0226 C   0  0  0  0  0  0  0  0  0  0  0  0
    2.5905    0.9795    0.0409 N   0  0  0  0  0  0  0  0  0  0  0  0
    3.4804   -0.4085    0.0228 S   0  0  0  0  0  0  0  0  0  0  0  0
    2.2936   -1.5528   -0.0087 N   0  0  0  0  0  0  0  0  0  0  0  0
    1.1126   -0.8913   -0.0067 C   0  0  0  0  0  0  0  0  0  0  0  0
   -2.2611    1.5869    0.0097 N   0  0  0  0  0  0  0  0  0  0  0  0
   -3.5163    0.4127   -0.0232 S   0  0  0  0  0  0  0  0  0  0  0  0
   -2.5668   -1.0203   -0.0414 N   0  0  0  0  0  0  0  0  0  0  0  0
  1  2  1  0
  2  3  2  0
  3  4  1  0
  4  5  2  0
  5  6  1  0
  5  7  1  0
  7  8  2  0
  8  9  1  0
  9 10  1  0
 10 11  2  0
  4 12  1  0
 12 13  2  0
 13 14  2  0
 11  2  1  0
 14  3  1  0
 11  7  1  0
M  END
