
     RDKit          3D

 17 18  0  0  0  0  0  0  0  0999 V2000
   -1.6429   -3.0527   -0.3202 Br  0  0  0  0  0  0  0  0  0  0  0  0
   -1.3894   -1.1701   -0.1614 C   0  0  0  0  0  0  0  0  0  0  0  0
   -2.5424   -0.3941   -0.1599 C   0  0  0  0  0  0  0  0  0  0  0  0
   -2.3913    0.9660   -0.0468 C   0  0  0  0  0  0  0  0  0  0  0  0
   -1.1942    1.5727    0.0611 N   0  0  0  0  0  0  0  0  0  0  0  0
   -0.0627    0.8289    0.0611 C   0  0  0  0  0  0  0  0  0  0  0  0
    1.1976    1.4362    0.1723 C   0  0  0  0  0  0  0  0  0  0  0  0
    1.3548    3.3313    0.3271 Br  0  0  0  0  0  0  0  0  0  0  0  0
    2.3888    0.7027    0.1760 C   0  0  0  0  0  0  0  0  0  0  0  0
    2.3430   -0.6772    0.0667 C   0  0  0  0  0  0  0  0  0  0  0  0
    1.1088   -1.3123   -0.0453 C   0  0  0  0  0  0  0  0  0  0  0  0
   -0.1074   -0.5799   -0.0504 C   0  0  0  0  0  0  0  0  0  0  0  0
   -3.5313   -0.8298   -0.2439 H   0  0  0  0  0  0  0  0  0  0  0  0
   -3.2502    1.6311   -0.0390 H   0  0  0  0  0  0  0  0  0  0  0  0
    3.3494    1.2040    0.2637 H   0  0  0  0  0  0  0  0  0  0  0  0
    3.2611   -1.2596    0.0682 H   0  0  0  0  0  0  0  0  0  0  0  0
    1.1081   -2.3970   -0.1294 H   0  0  0  0  0  0  0  0  0  0  0  0
  1  2  1  0
  2  3  2  0
  3  4  1  0
  4  5  2  0
  5  6  1  0
  6  7  2  0
  7  8  1  0
  7  9  1  0
  9 10  2  0
 10 11  1  0
 11 12  2  0
 12  2  1  0
 12  6  1  0
  3 13  1  0
  4 14  1  0
  9 15  1  0
 10 16  1  0
 11 17  1  0
M  END
