
     RDKit          3D

 14 16  0  0  0  0  0  0  0  0999 V2000
    0.0283   -3.3470   -0.4960 Br  0  0  0  0  0  0  0  0  0  0  0  0
   -0.0028   -1.4639   -0.2165 C   0  0  0  0  0  0  0  0  0  0  0  0
   -1.2062   -0.7287   -0.0702 C   0  0  0  0  0  0  0  0  0  0  0  0
   -1.2160    0.7015    0.1417 C   0  0  0  0  0  0  0  0  0  0  0  0
   -0.0229    1.4637    0.2172 C   0  0  0  0  0  0  0  0  0  0  0  0
   -0.0176    3.3472    0.4956 Br  0  0  0  0  0  0  0  0  0  0  0  0
    1.2031    0.7611    0.0751 C   0  0  0  0  0  0  0  0  0  0  0  0
    2.4490    1.2889    0.1144 N   0  0  0  0  0  0  0  0  0  0  0  0
    3.5027    0.0393   -0.1034 S   0  0  0  0  0  0  0  0  0  0  0  0
    2.4663   -1.2337   -0.2593 N   0  0  0  0  0  0  0  0  0  0  0  0
    1.2134   -0.7339   -0.1464 C   0  0  0  0  0  0  0  0  0  0  0  0
   -2.4383    1.2713    0.2641 N   0  0  0  0  0  0  0  0  0  0  0  0
   -3.5387   -0.0397    0.1043 S   0  0  0  0  0  0  0  0  0  0  0  0
   -2.4205   -1.3258   -0.1207 N   0  0  0  0  0  0  0  0  0  0  0  0
  1  2  1  0
  2  3  2  0
  3  4  1  0
  4  5  2  0
  5  6  1  0
  5  7  1  0
  7  8  2  0
  8  9  1  0
  9 10  1  0
 10 11  2  0
  4 12  1  0
 12 13  2  0
 13 14  2  0
 11  2  1  0
 14  3  1  0
 11  7  1  0
M  END
