
     RDKit          3D

 18 20  0  0  0  0  0  0  0  0999 V2000
   -2.9741    2.2684   -0.2074 O   0  0  0  0  0  0  0  0  0  0  0  0
   -2.5601    1.1313   -0.1544 C   0  0  0  0  0  0  0  0  0  0  0  0
   -3.3122    0.0040   -0.1568 O   0  0  0  0  0  0  0  0  0  0  0  0
   -2.5660   -1.1251   -0.0882 C   0  0  0  0  0  0  0  0  0  0  0  0
   -2.9860   -2.2611   -0.0746 O   0  0  0  0  0  0  0  0  0  0  0  0
   -1.1803   -0.6897   -0.0355 C   0  0  0  0  0  0  0  0  0  0  0  0
   -0.0037   -1.4283    0.0419 C   0  0  0  0  0  0  0  0  0  0  0  0
   -0.0086   -3.3143    0.0972 Br  0  0  0  0  0  0  0  0  0  0  0  0
    1.1767   -0.6926    0.0760 C   0  0  0  0  0  0  0  0  0  0  0  0
    2.5601   -1.1313    0.1544 C   0  0  0  0  0  0  0  0  0  0  0  0
    2.9741   -2.2684    0.2074 O   0  0  0  0  0  0  0  0  0  0  0  0
    3.3122   -0.0040    0.1568 O   0  0  0  0  0  0  0  0  0  0  0  0
    2.5660    1.1251    0.0882 C   0  0  0  0  0  0  0  0  0  0  0  0
    2.9860    2.2611    0.0746 O   0  0  0  0  0  0  0  0  0  0  0  0
    1.1803    0.6897    0.0355 C   0  0  0  0  0  0  0  0  0  0  0  0
    0.0037    1.4283   -0.0419 C   0  0  0  0  0  0  0  0  0  0  0  0
    0.0086    3.3143   -0.0972 Br  0  0  0  0  0  0  0  0  0  0  0  0
   -1.1767    0.6926   -0.0760 C   0  0  0  0  0  0  0  0  0  0  0  0
  1  2  2  0
  2  3  1  0
  3  4  1  0
  4  5  2  0
  4  6  1  0
  6  7  2  0
  7  8  1  0
  7  9  1  0
  9 10  1  0
 10 11  2  0
 10 12  1  0
 12 13  1  0
 13 14  2  0
 13 15  1  0
 15 16  1  0
 16 17  1  0
 16 18  2  0
 18  2  1  0
 18  6  1  0
 15  9  2  0
M  END
