
     RDKit          3D

 18 18  0  0  0  0  0  0  0  0999 V2000
    3.4497    1.4545   -1.5173 N   0  0  0  0  0  0  0  0  0  0  0  0
    3.0376    0.7725   -0.6750 C   0  0  0  0  0  0  0  0  0  0  0  0
    2.4963   -0.1057    0.3694 C   0  0  0  0  0  0  0  0  0  0  0  0
    1.0089    0.1394    0.6199 C   0  0  0  0  0  0  0  0  0  0  0  0
    0.1360   -0.2056   -0.5889 C   0  0  0  0  0  0  0  0  0  0  0  0
   -1.2751   -0.1147   -0.2752 N   0  0  0  0  0  0  0  0  0  0  0  0
   -1.8969    1.0780   -0.3143 N   0  0  0  0  0  0  0  0  0  0  0  0
   -3.1415    0.7378    0.0379 C   0  0  0  0  0  0  0  0  0  0  0  0
   -4.5351    2.0005    0.1652 Br  0  0  0  0  0  0  0  0  0  0  0  0
   -3.3253   -0.5903    0.3088 N   0  0  0  0  0  0  0  0  0  0  0  0
   -2.1342   -1.1042    0.1060 C   0  0  0  0  0  0  0  0  0  0  0  0
   -1.7319   -2.9496    0.3520 Br  0  0  0  0  0  0  0  0  0  0  0  0
    2.6589   -1.1541    0.0942 H   0  0  0  0  0  0  0  0  0  0  0  0
    3.0457    0.0655    1.3023 H   0  0  0  0  0  0  0  0  0  0  0  0
    0.6985   -0.4694    1.4789 H   0  0  0  0  0  0  0  0  0  0  0  0
    0.8438    1.1861    0.9073 H   0  0  0  0  0  0  0  0  0  0  0  0
    0.3237    0.4788   -1.4242 H   0  0  0  0  0  0  0  0  0  0  0  0
    0.3410   -1.2195   -0.9470 H   0  0  0  0  0  0  0  0  0  0  0  0
  1  2  3  0
  2  3  1  0
  3  4  1  0
  4  5  1  0
  5  6  1  0
  6  7  1  0
  7  8  2  0
  8  9  1  0
  8 10  1  0
 10 11  2  0
 11 12  1  0
 11  6  1  0
  3 13  1  0
  3 14  1  0
  4 15  1  0
  4 16  1  0
  5 17  1  0
  5 18  1  0
M  END
