
     RDKit          3D

 25 26  0  0  0  0  0  0  0  0999 V2000
    3.6835    3.0718    0.6161 Br  0  0  0  0  0  0  0  0  0  0  0  0
    2.8666    1.4383    0.1215 C   0  0  0  0  0  0  0  0  0  0  0  0
    3.6482    0.4037   -0.3732 C   0  0  0  0  0  0  0  0  0  0  0  0
    3.0262   -0.7863   -0.7244 C   0  0  0  0  0  0  0  0  0  0  0  0
    4.0613   -2.2149   -1.4083 Br  0  0  0  0  0  0  0  0  0  0  0  0
    1.6422   -0.9413   -0.5829 C   0  0  0  0  0  0  0  0  0  0  0  0
    0.8306    0.0919   -0.0850 C   0  0  0  0  0  0  0  0  0  0  0  0
   -0.5375   -0.0595    0.0550 N   0  0  0  0  0  0  0  0  0  0  0  0
   -1.1806   -1.3839    0.1044 C   0  0  0  0  0  0  0  0  0  0  0  0
   -2.4971   -1.3038    0.8962 C   0  0  0  0  0  0  0  0  0  0  0  0
   -3.4519   -0.3819    0.3531 O   0  0  0  0  0  0  0  0  0  0  0  0
   -2.8476    0.7125   -0.3495 C   0  0  0  0  0  0  0  0  0  0  0  0
   -1.4485    1.0931    0.1646 C   0  0  0  0  0  0  0  0  0  0  0  0
    1.4822    1.2870    0.2633 C   0  0  0  0  0  0  0  0  0  0  0  0
    4.7217    0.5224   -0.4830 H   0  0  0  0  0  0  0  0  0  0  0  0
    1.1970   -1.8826   -0.8928 H   0  0  0  0  0  0  0  0  0  0  0  0
   -1.3806   -1.7199   -0.9197 H   0  0  0  0  0  0  0  0  0  0  0  0
   -0.5365   -2.1197    0.5993 H   0  0  0  0  0  0  0  0  0  0  0  0
   -2.9747   -2.2882    0.9318 H   0  0  0  0  0  0  0  0  0  0  0  0
   -2.2980   -1.0008    1.9311 H   0  0  0  0  0  0  0  0  0  0  0  0
   -2.7988    0.4369   -1.4097 H   0  0  0  0  0  0  0  0  0  0  0  0
   -3.5241    1.5691   -0.2670 H   0  0  0  0  0  0  0  0  0  0  0  0
   -1.5074    1.4003    1.2152 H   0  0  0  0  0  0  0  0  0  0  0  0
   -1.0912    1.9396   -0.4328 H   0  0  0  0  0  0  0  0  0  0  0  0
    0.9152    2.1163    0.6767 H   0  0  0  0  0  0  0  0  0  0  0  0
  1  2  1  0
  2  3  2  0
  3  4  1  0
  4  5  1  0
  4  6  2  0
  6  7  1  0
  7  8  1  0
  8  9  1  0
  9 10  1  0
 10 11  1  0
 11 12  1  0
 12 13  1  0
  7 14  2  0
 14  2  1  0
 13  8  1  0
  3 15  1  0
  6 16  1  0
  9 17  1  0
  9 18  1  0
 10 19  1  0
 10 20  1  0
 12 21  1  0
 12 22  1  0
 13 23  1  0
 13 24  1  0
 14 25  1  0
M  END
