
     RDKit          3D

 27 28  0  0  0  0  0  0  0  0999 V2000
    5.6681    0.4445    0.0763 O   0  0  0  0  0  0  0  0  0  0  0  0
    4.3100    0.2883   -0.0069 C   0  0  0  0  0  0  0  0  0  0  0  0
    3.4693    1.1940    0.6433 C   0  0  0  0  0  0  0  0  0  0  0  0
    4.1682    2.6463    1.6466 Br  0  0  0  0  0  0  0  0  0  0  0  0
    2.0783    1.0503    0.5694 C   0  0  0  0  0  0  0  0  0  0  0  0
    1.5235   -0.0037   -0.1578 C   0  0  0  0  0  0  0  0  0  0  0  0
    0.1899   -0.2612   -0.3125 O   0  0  0  0  0  0  0  0  0  0  0  0
   -0.7285    0.6242    0.3250 C   0  0  0  0  0  0  0  0  0  0  0  0
   -2.1261    0.1475    0.0182 C   0  0  0  0  0  0  0  0  0  0  0  0
   -2.7593   -0.7848    0.8524 C   0  0  0  0  0  0  0  0  0  0  0  0
   -4.0474   -1.2360    0.5598 C   0  0  0  0  0  0  0  0  0  0  0  0
   -4.7109   -0.7675   -0.5726 C   0  0  0  0  0  0  0  0  0  0  0  0
   -4.0855    0.1480   -1.4170 C   0  0  0  0  0  0  0  0  0  0  0  0
   -2.7974    0.6006   -1.1264 C   0  0  0  0  0  0  0  0  0  0  0  0
    2.3655   -0.9101   -0.8085 C   0  0  0  0  0  0  0  0  0  0  0  0
    3.7510   -0.7648   -0.7334 C   0  0  0  0  0  0  0  0  0  0  0  0
    4.8532   -2.0184   -1.6322 Br  0  0  0  0  0  0  0  0  0  0  0  0
    6.0844   -0.2734   -0.4342 H   0  0  0  0  0  0  0  0  0  0  0  0
    1.4541    1.7716    1.0864 H   0  0  0  0  0  0  0  0  0  0  0  0
   -0.5750    0.6242    1.4116 H   0  0  0  0  0  0  0  0  0  0  0  0
   -0.6031    1.6477   -0.0503 H   0  0  0  0  0  0  0  0  0  0  0  0
   -2.2489   -1.1692    1.7327 H   0  0  0  0  0  0  0  0  0  0  0  0
   -4.5311   -1.9579    1.2128 H   0  0  0  0  0  0  0  0  0  0  0  0
   -5.7126   -1.1217   -0.8013 H   0  0  0  0  0  0  0  0  0  0  0  0
   -4.5989    0.5056   -2.3058 H   0  0  0  0  0  0  0  0  0  0  0  0
   -2.3170    1.3053   -1.8015 H   0  0  0  0  0  0  0  0  0  0  0  0
    1.9260   -1.7293   -1.3736 H   0  0  0  0  0  0  0  0  0  0  0  0
  1  2  1  0
  2  3  2  0
  3  4  1  0
  3  5  1  0
  5  6  2  0
  6  7  1  0
  7  8  1  0
  8  9  1  0
  9 10  2  0
 10 11  1  0
 11 12  2  0
 12 13  1  0
 13 14  2  0
  6 15  1  0
 15 16  2  0
 16 17  1  0
 16  2  1  0
 14  9  1  0
  1 18  1  0
  5 19  1  0
  8 20  1  0
  8 21  1  0
 10 22  1  0
 11 23  1  0
 12 24  1  0
 13 25  1  0
 14 26  1  0
 15 27  1  0
M  END
