
     RDKit          3D

 24 25  0  0  0  0  0  0  0  0999 V2000
   -6.2030    0.7613    0.9504 N   0  0  0  0  0  0  0  0  0  0  0  0
   -5.0483    0.6715    0.8804 C   0  0  0  0  0  0  0  0  0  0  0  0
   -3.6221    0.5518    0.7904 C   0  0  0  0  0  0  0  0  0  0  0  0
   -3.0474   -0.5680    0.1790 C   0  0  0  0  0  0  0  0  0  0  0  0
   -1.6547   -0.6915    0.0887 C   0  0  0  0  0  0  0  0  0  0  0  0
   -0.8250    0.3103    0.6088 C   0  0  0  0  0  0  0  0  0  0  0  0
    0.6670    0.2333    0.5462 C   0  0  0  0  0  0  0  0  0  0  0  0
    1.3256    1.0343    1.2062 O   0  0  0  0  0  0  0  0  0  0  0  0
    1.2978   -0.8466   -0.2991 C   0  0  0  0  0  0  0  0  0  0  0  0
    2.7034   -0.5981   -0.5465 N   0  0  0  0  0  0  0  0  0  0  0  0
    3.1115   -0.1914   -1.7668 N   0  0  0  0  0  0  0  0  0  0  0  0
    4.4380   -0.1489   -1.5970 C   0  0  0  0  0  0  0  0  0  0  0  0
    5.6124    0.3876   -2.9707 Br  0  0  0  0  0  0  0  0  0  0  0  0
    4.8808   -0.5539   -0.3685 N   0  0  0  0  0  0  0  0  0  0  0  0
    3.7695   -0.8311    0.2741 C   0  0  0  0  0  0  0  0  0  0  0  0
    3.7246   -1.4943    2.0595 Br  0  0  0  0  0  0  0  0  0  0  0  0
   -1.4068    1.4285    1.2252 C   0  0  0  0  0  0  0  0  0  0  0  0
   -2.7973    1.5501    1.3145 C   0  0  0  0  0  0  0  0  0  0  0  0
   -3.6817   -1.3541   -0.2298 H   0  0  0  0  0  0  0  0  0  0  0  0
   -1.2555   -1.5836   -0.3859 H   0  0  0  0  0  0  0  0  0  0  0  0
    1.2112   -1.8146    0.2036 H   0  0  0  0  0  0  0  0  0  0  0  0
    0.8053   -0.8978   -1.2759 H   0  0  0  0  0  0  0  0  0  0  0  0
   -0.7794    2.2172    1.6408 H   0  0  0  0  0  0  0  0  0  0  0  0
   -3.2260    2.4280    1.7959 H   0  0  0  0  0  0  0  0  0  0  0  0
  1  2  3  0
  2  3  1  0
  3  4  2  0
  4  5  1  0
  5  6  2  0
  6  7  1  0
  7  8  2  0
  7  9  1  0
  9 10  1  0
 10 11  1  0
 11 12  2  0
 12 13  1  0
 12 14  1  0
 14 15  2  0
 15 16  1  0
  6 17  1  0
 17 18  2  0
 18  3  1  0
 15 10  1  0
  4 19  1  0
  5 20  1  0
  9 21  1  0
  9 22  1  0
 17 23  1  0
 18 24  1  0
M  END
