
     RDKit          3D

 17 17  0  0  0  0  0  0  0  0999 V2000
   -3.0721    0.2208    0.0883 N   0  0  0  0  0  0  0  0  0  0  0  0
   -1.6728    0.0950    0.2010 C   0  0  0  0  0  0  0  0  0  0  0  0
   -0.8356    1.2224    0.1004 C   0  0  0  0  0  0  0  0  0  0  0  0
   -1.5675    2.9776    0.0195 Br  0  0  0  0  0  0  0  0  0  0  0  0
    0.5575    1.0986    0.0782 C   0  0  0  0  0  0  0  0  0  0  0  0
    1.1434   -0.1696    0.1212 C   0  0  0  0  0  0  0  0  0  0  0  0
    2.6133   -0.3577    0.0984 C   0  0  0  0  0  0  0  0  0  0  0  0
    3.1930   -1.4266    0.1295 O   0  0  0  0  0  0  0  0  0  0  0  0
    3.2856    0.8042    0.0406 O   0  0  0  0  0  0  0  0  0  0  0  0
    0.3326   -1.3069    0.1769 C   0  0  0  0  0  0  0  0  0  0  0  0
   -1.0589   -1.1715    0.1983 C   0  0  0  0  0  0  0  0  0  0  0  0
   -2.1011   -2.7626    0.2543 Br  0  0  0  0  0  0  0  0  0  0  0  0
   -3.5852   -0.5712    0.4676 H   0  0  0  0  0  0  0  0  0  0  0  0
   -3.4282    1.1209    0.4002 H   0  0  0  0  0  0  0  0  0  0  0  0
    1.1800    1.9883    0.0184 H   0  0  0  0  0  0  0  0  0  0  0  0
    4.2284    0.5341    0.0297 H   0  0  0  0  0  0  0  0  0  0  0  0
    0.7875   -2.2958    0.1943 H   0  0  0  0  0  0  0  0  0  0  0  0
  1  2  1  0
  2  3  2  0
  3  4  1  0
  3  5  1  0
  5  6  2  0
  6  7  1  0
  7  8  2  0
  7  9  1  0
  6 10  1  0
 10 11  2  0
 11 12  1  0
 11  2  1  0
  1 13  1  0
  1 14  1  0
  5 15  1  0
  9 16  1  0
 10 17  1  0
M  END
