
     RDKit          3D

 13 13  0  0  0  0  0  0  0  0999 V2000
    2.0507    0.0826   -0.2818 N   0  0  0  0  0  0  0  0  0  0  0  0
    0.6596    0.0478   -0.0450 C   0  0  0  0  0  0  0  0  0  0  0  0
   -0.1811    1.0649   -0.5230 C   0  0  0  0  0  0  0  0  0  0  0  0
    0.5101    2.6347   -1.3315 Br  0  0  0  0  0  0  0  0  0  0  0  0
   -1.5580    0.9316   -0.3833 C   0  0  0  0  0  0  0  0  0  0  0  0
   -2.1604   -0.1469    0.1677 N   0  0  0  0  0  0  0  0  0  0  0  0
   -1.3423   -1.1426    0.5788 C   0  0  0  0  0  0  0  0  0  0  0  0
    0.0440   -1.0988    0.4807 C   0  0  0  0  0  0  0  0  0  0  0  0
    1.0530   -2.5844    1.0895 Br  0  0  0  0  0  0  0  0  0  0  0  0
    2.5884   -0.5122    0.3441 H   0  0  0  0  0  0  0  0  0  0  0  0
    2.4287    1.0230   -0.3681 H   0  0  0  0  0  0  0  0  0  0  0  0
   -2.2395    1.7061   -0.7250 H   0  0  0  0  0  0  0  0  0  0  0  0
   -1.8533   -2.0058    0.9968 H   0  0  0  0  0  0  0  0  0  0  0  0
  1  2  1  0
  2  3  2  0
  3  4  1  0
  3  5  1  0
  5  6  2  0
  6  7  1  0
  7  8  2  0
  8  9  1  0
  8  2  1  0
  1 10  1  0
  1 11  1  0
  5 12  1  0
  7 13  1  0
M  END
