
     RDKit          3D

 13 13  0  0  0  0  0  0  0  0999 V2000
    2.0235   -0.3715    0.2432 N   0  0  0  0  0  0  0  0  0  0  0  0
    0.6460   -0.1444    0.0348 C   0  0  0  0  0  0  0  0  0  0  0  0
   -0.3209   -0.9736    0.6241 C   0  0  0  0  0  0  0  0  0  0  0  0
    0.1537   -2.5527    1.5604 Br  0  0  0  0  0  0  0  0  0  0  0  0
   -1.6661   -0.6431    0.5028 C   0  0  0  0  0  0  0  0  0  0  0  0
   -2.1180    0.4618   -0.1333 N   0  0  0  0  0  0  0  0  0  0  0  0
   -1.1742    1.2793   -0.6535 C   0  0  0  0  0  0  0  0  0  0  0  0
    0.1922    1.0318   -0.5821 C   0  0  0  0  0  0  0  0  0  0  0  0
    1.3915    2.2844   -1.3491 Br  0  0  0  0  0  0  0  0  0  0  0  0
    2.2579   -1.3474    0.4087 H   0  0  0  0  0  0  0  0  0  0  0  0
    2.6220    0.0755   -0.4472 H   0  0  0  0  0  0  0  0  0  0  0  0
   -2.4440   -1.2702    0.9303 H   0  0  0  0  0  0  0  0  0  0  0  0
   -1.5637    2.1701   -1.1391 H   0  0  0  0  0  0  0  0  0  0  0  0
  1  2  1  0
  2  3  2  0
  3  4  1  0
  3  5  1  0
  5  6  2  0
  6  7  1  0
  7  8  2  0
  8  9  1  0
  8  2  1  0
  1 10  1  0
  1 11  1  0
  5 12  1  0
  7 13  1  0
M  END
