
     RDKit          3D

 15 15  0  0  0  0  0  0  0  0999 V2000
   -3.9227   -0.7703   -1.3281 N   0  0  0  0  0  0  0  0  0  0  0  0
   -2.8446   -0.5579   -0.9561 C   0  0  0  0  0  0  0  0  0  0  0  0
   -1.5114   -0.2957   -0.4995 C   0  0  0  0  0  0  0  0  0  0  0  0
   -0.6655   -1.3541   -0.1623 C   0  0  0  0  0  0  0  0  0  0  0  0
    0.6345   -1.0931    0.2847 C   0  0  0  0  0  0  0  0  0  0  0  0
    1.7249   -2.5827    0.7461 Br  0  0  0  0  0  0  0  0  0  0  0  0
    1.1311    0.2211    0.3718 C   0  0  0  0  0  0  0  0  0  0  0  0
    2.3893    0.4820    0.9488 N   0  0  0  0  0  0  0  0  0  0  0  0
    0.2440    1.2706    0.0672 C   0  0  0  0  0  0  0  0  0  0  0  0
    0.7881    3.0871    0.2245 Br  0  0  0  0  0  0  0  0  0  0  0  0
   -1.0577    1.0195   -0.3807 C   0  0  0  0  0  0  0  0  0  0  0  0
   -1.0208   -2.3805   -0.2385 H   0  0  0  0  0  0  0  0  0  0  0  0
    2.7771    1.3883    0.6980 H   0  0  0  0  0  0  0  0  0  0  0  0
    3.0531   -0.2825    0.8517 H   0  0  0  0  0  0  0  0  0  0  0  0
   -1.7194    1.8481   -0.6276 H   0  0  0  0  0  0  0  0  0  0  0  0
  1  2  3  0
  2  3  1  0
  3  4  2  0
  4  5  1  0
  5  6  1  0
  5  7  2  0
  7  8  1  0
  7  9  1  0
  9 10  1  0
  9 11  2  0
 11  3  1  0
  4 12  1  0
  8 13  1  0
  8 14  1  0
 11 15  1  0
M  END
