
     RDKit          3D

 15 15  0  0  0  0  0  0  0  0999 V2000
   -4.1662   -0.4940   -0.3788 N   0  0  0  0  0  0  0  0  0  0  0  0
   -3.0187   -0.3548   -0.2803 C   0  0  0  0  0  0  0  0  0  0  0  0
   -1.6009   -0.1843   -0.1557 C   0  0  0  0  0  0  0  0  0  0  0  0
   -1.0844    0.9506    0.4726 C   0  0  0  0  0  0  0  0  0  0  0  0
    0.3003    1.1135    0.5902 C   0  0  0  0  0  0  0  0  0  0  0  0
    0.9341    2.6939    1.4396 Br  0  0  0  0  0  0  0  0  0  0  0  0
    1.1974    0.1369    0.1182 C   0  0  0  0  0  0  0  0  0  0  0  0
    2.5865    0.3702    0.1188 N   0  0  0  0  0  0  0  0  0  0  0  0
    0.6517   -0.9759   -0.5489 C   0  0  0  0  0  0  0  0  0  0  0  0
    1.7768   -2.3181   -1.2928 Br  0  0  0  0  0  0  0  0  0  0  0  0
   -0.7316   -1.1476   -0.6713 C   0  0  0  0  0  0  0  0  0  0  0  0
   -1.7587    1.7117    0.8619 H   0  0  0  0  0  0  0  0  0  0  0  0
    2.8977    1.0006    0.8539 H   0  0  0  0  0  0  0  0  0  0  0  0
    3.1460   -0.4764    0.0487 H   0  0  0  0  0  0  0  0  0  0  0  0
   -1.1301   -2.0263   -1.1759 H   0  0  0  0  0  0  0  0  0  0  0  0
  1  2  3  0
  2  3  1  0
  3  4  2  0
  4  5  1  0
  5  6  1  0
  5  7  2  0
  7  8  1  0
  7  9  1  0
  9 10  1  0
  9 11  2  0
 11  3  1  0
  4 12  1  0
  8 13  1  0
  8 14  1  0
 11 15  1  0
M  END
