
     RDKit          3D

 17 17  0  0  0  0  0  0  0  0999 V2000
    2.4876   -0.5190    0.3195 C   0  0  0  0  0  0  0  0  0  0  0  0
    1.0741   -0.0086    0.1940 C   0  0  0  0  0  0  0  0  0  0  0  0
    0.7383    1.3228    0.4958 C   0  0  0  0  0  0  0  0  0  0  0  0
    1.9107    2.4824    1.0204 Cl  0  0  0  0  0  0  0  0  0  0  0  0
   -0.5791    1.7749    0.3955 C   0  0  0  0  0  0  0  0  0  0  0  0
   -1.5878    0.9054   -0.0132 C   0  0  0  0  0  0  0  0  0  0  0  0
   -3.3612    1.5881   -0.1090 Br  0  0  0  0  0  0  0  0  0  0  0  0
   -1.3027   -0.4240   -0.3614 C   0  0  0  0  0  0  0  0  0  0  0  0
   -2.3492   -1.3295   -0.6399 N   0  0  0  0  0  0  0  0  0  0  0  0
    0.0301   -0.8754   -0.2112 C   0  0  0  0  0  0  0  0  0  0  0  0
    0.4048   -2.7177   -0.5998 Br  0  0  0  0  0  0  0  0  0  0  0  0
    2.5486   -1.2642    1.1196 H   0  0  0  0  0  0  0  0  0  0  0  0
    2.8173   -0.9646   -0.6251 H   0  0  0  0  0  0  0  0  0  0  0  0
    3.2164    0.2601    0.5531 H   0  0  0  0  0  0  0  0  0  0  0  0
   -0.8179    2.8058    0.6469 H   0  0  0  0  0  0  0  0  0  0  0  0
   -2.0493   -2.1495   -1.1616 H   0  0  0  0  0  0  0  0  0  0  0  0
   -3.1807   -0.8870   -1.0236 H   0  0  0  0  0  0  0  0  0  0  0  0
  1  2  1  0
  2  3  2  0
  3  4  1  0
  3  5  1  0
  5  6  2  0
  6  7  1  0
  6  8  1  0
  8  9  1  0
  8 10  2  0
 10 11  1  0
 10  2  1  0
  1 12  1  0
  1 13  1  0
  1 14  1  0
  5 15  1  0
  9 16  1  0
  9 17  1  0
M  END
