
     RDKit          3D

 15 15  0  0  0  0  0  0  0  0999 V2000
    2.2842   -0.3367    0.0402 C   0  0  0  0  0  0  0  0  0  0  0  0
    0.8007   -0.1165   -0.0111 C   0  0  0  0  0  0  0  0  0  0  0  0
    0.2716    1.1758    0.0660 C   0  0  0  0  0  0  0  0  0  0  0  0
   -1.1145    1.3825    0.0499 C   0  0  0  0  0  0  0  0  0  0  0  0
   -1.7087    3.1884    0.1499 Br  0  0  0  0  0  0  0  0  0  0  0  0
   -1.9963    0.2942   -0.0335 C   0  0  0  0  0  0  0  0  0  0  0  0
   -3.7133    0.5467   -0.0551 Cl  0  0  0  0  0  0  0  0  0  0  0  0
   -1.4635   -1.0025   -0.0954 C   0  0  0  0  0  0  0  0  0  0  0  0
   -2.5501   -2.5622   -0.2003 Br  0  0  0  0  0  0  0  0  0  0  0  0
   -0.0765   -1.2035   -0.0789 C   0  0  0  0  0  0  0  0  0  0  0  0
    2.8197    0.5050   -0.4114 H   0  0  0  0  0  0  0  0  0  0  0  0
    2.5649   -1.2364   -0.5174 H   0  0  0  0  0  0  0  0  0  0  0  0
    2.6099   -0.4476    1.0789 H   0  0  0  0  0  0  0  0  0  0  0  0
    0.9463    2.0275    0.1383 H   0  0  0  0  0  0  0  0  0  0  0  0
    0.3255   -2.2148   -0.1200 H   0  0  0  0  0  0  0  0  0  0  0  0
  1  2  1  0
  2  3  2  0
  3  4  1  0
  4  5  1  0
  4  6  2  0
  6  7  1  0
  6  8  1  0
  8  9  1  0
  8 10  2  0
 10  2  1  0
  1 11  1  0
  1 12  1  0
  1 13  1  0
  3 14  1  0
 10 15  1  0
M  END
