
     RDKit          3D

 24 24  0  0  0  0  0  0  0  0999 V2000
   -1.5594   -0.7270    1.3411 C   0  0  0  0  0  0  0  0  0  0  0  0
   -1.1792    0.0516    0.0631 C   0  0  0  0  0  0  0  0  0  0  0  0
   -1.7647    1.4748    0.2048 C   0  0  0  0  0  0  0  0  0  0  0  0
   -1.8651   -0.6042   -1.1549 C   0  0  0  0  0  0  0  0  0  0  0  0
    0.3486    0.0219   -0.1255 C   0  0  0  0  0  0  0  0  0  0  0  0
    1.1329    1.1850   -0.1644 C   0  0  0  0  0  0  0  0  0  0  0  0
    2.5263    1.1267   -0.3379 C   0  0  0  0  0  0  0  0  0  0  0  0
    3.4511    2.7920   -0.3693 Br  0  0  0  0  0  0  0  0  0  0  0  0
    3.1789   -0.1043   -0.4784 C   0  0  0  0  0  0  0  0  0  0  0  0
    4.8989   -0.1785   -0.6927 Cl  0  0  0  0  0  0  0  0  0  0  0  0
    2.4110   -1.2735   -0.4418 C   0  0  0  0  0  0  0  0  0  0  0  0
    3.1665   -3.0121   -0.6199 Br  0  0  0  0  0  0  0  0  0  0  0  0
    1.0199   -1.2069   -0.2682 C   0  0  0  0  0  0  0  0  0  0  0  0
   -2.6407   -0.6916    1.5185 H   0  0  0  0  0  0  0  0  0  0  0  0
   -1.0626   -0.3046    2.2226 H   0  0  0  0  0  0  0  0  0  0  0  0
   -1.2797   -1.7845    1.2814 H   0  0  0  0  0  0  0  0  0  0  0  0
   -2.8530    1.4430    0.3366 H   0  0  0  0  0  0  0  0  0  0  0  0
   -1.3506    1.9968    1.0754 H   0  0  0  0  0  0  0  0  0  0  0  0
   -1.5662    2.0834   -0.6852 H   0  0  0  0  0  0  0  0  0  0  0  0
   -1.5902   -0.0927   -2.0850 H   0  0  0  0  0  0  0  0  0  0  0  0
   -2.9568   -0.5646   -1.0625 H   0  0  0  0  0  0  0  0  0  0  0  0
   -1.5918   -1.6592   -1.2668 H   0  0  0  0  0  0  0  0  0  0  0  0
    0.6733    2.1650   -0.0599 H   0  0  0  0  0  0  0  0  0  0  0  0
    0.4527   -2.1363   -0.2444 H   0  0  0  0  0  0  0  0  0  0  0  0
  1  2  1  0
  2  3  1  0
  2  4  1  0
  2  5  1  0
  5  6  2  0
  6  7  1  0
  7  8  1  0
  7  9  2  0
  9 10  1  0
  9 11  1  0
 11 12  1  0
 11 13  2  0
 13  5  1  0
  1 14  1  0
  1 15  1  0
  1 16  1  0
  3 17  1  0
  3 18  1  0
  3 19  1  0
  4 20  1  0
  4 21  1  0
  4 22  1  0
  6 23  1  0
 13 24  1  0
M  END
