
     RDKit          3D

 15 15  0  0  0  0  0  0  0  0999 V2000
    1.8821   -0.9153    0.9758 C   0  0  0  0  0  0  0  0  0  0  0  0
    0.6734   -0.3023    0.3316 C   0  0  0  0  0  0  0  0  0  0  0  0
    0.2598   -0.7152   -0.9390 C   0  0  0  0  0  0  0  0  0  0  0  0
   -0.8867   -0.1671   -1.5303 C   0  0  0  0  0  0  0  0  0  0  0  0
   -1.3383   -0.8041   -3.2665 Br  0  0  0  0  0  0  0  0  0  0  0  0
   -1.6457    0.7988   -0.8522 C   0  0  0  0  0  0  0  0  0  0  0  0
   -3.0651    1.4806   -1.5821 Cl  0  0  0  0  0  0  0  0  0  0  0  0
   -1.2375    1.2003    0.4289 C   0  0  0  0  0  0  0  0  0  0  0  0
   -2.1841    2.4927    1.4573 Br  0  0  0  0  0  0  0  0  0  0  0  0
   -0.0902    0.6489    1.0155 C   0  0  0  0  0  0  0  0  0  0  0  0
    2.3669   -0.2040    1.6527 H   0  0  0  0  0  0  0  0  0  0  0  0
    2.6230   -1.2024    0.2222 H   0  0  0  0  0  0  0  0  0  0  0  0
    1.5923   -1.8043    1.5444 H   0  0  0  0  0  0  0  0  0  0  0  0
    0.8371   -1.4694   -1.4716 H   0  0  0  0  0  0  0  0  0  0  0  0
    0.2131    0.9628    2.0133 H   0  0  0  0  0  0  0  0  0  0  0  0
  1  2  1  0
  2  3  2  0
  3  4  1  0
  4  5  1  0
  4  6  2  0
  6  7  1  0
  6  8  1  0
  8  9  1  0
  8 10  2  0
 10  2  1  0
  1 11  1  0
  1 12  1  0
  1 13  1  0
  3 14  1  0
 10 15  1  0
M  END
