
     RDKit          3D

 16 17  0  0  0  0  0  0  0  0999 V2000
    2.5900    0.1977   -0.0267 C   0  0  0  0  0  0  0  0  0  0  0  0
    1.1537    0.0901   -0.0346 N   0  0  0  0  0  0  0  0  0  0  0  0
    0.3134    1.1876    0.0747 C   0  0  0  0  0  0  0  0  0  0  0  0
    0.6114    2.3650    0.1702 O   0  0  0  0  0  0  0  0  0  0  0  0
   -1.0112    0.6288    0.0645 C   0  0  0  0  0  0  0  0  0  0  0  0
   -2.2999    1.0617    0.1236 C   0  0  0  0  0  0  0  0  0  0  0  0
   -2.8609    2.8762    0.2581 Br  0  0  0  0  0  0  0  0  0  0  0  0
   -3.3919   -0.2587    0.0603 S   0  0  0  0  0  0  0  0  0  0  0  0
   -2.1147   -1.3979   -0.0430 C   0  0  0  0  0  0  0  0  0  0  0  0
   -2.3974   -3.2773   -0.1586 Br  0  0  0  0  0  0  0  0  0  0  0  0
   -0.9055   -0.7737   -0.0305 C   0  0  0  0  0  0  0  0  0  0  0  0
    0.4876   -1.1251   -0.0819 C   0  0  0  0  0  0  0  0  0  0  0  0
    0.9587   -2.2469   -0.1421 O   0  0  0  0  0  0  0  0  0  0  0  0
    2.9008    1.1516   -0.4615 H   0  0  0  0  0  0  0  0  0  0  0  0
    2.9308    0.1531    1.0120 H   0  0  0  0  0  0  0  0  0  0  0  0
    3.0352   -0.6321   -0.5822 H   0  0  0  0  0  0  0  0  0  0  0  0
  1  2  1  0
  2  3  1  0
  3  4  2  0
  3  5  1  0
  5  6  2  0
  6  7  1  0
  6  8  1  0
  8  9  1  0
  9 10  1  0
  9 11  2  0
 11 12  1  0
 12 13  2  0
 12  2  1  0
 11  5  1  0
  1 14  1  0
  1 15  1  0
  1 16  1  0
M  END
