
     RDKit          3D

 20 23  0  0  0  0  0  0  0  0999 V2000
    0.9493    1.6639    0.2186 C   0  0  0  0  0  0  0  0  0  0  0  0
    2.3043    1.2948    0.1930 C   0  0  0  0  0  0  0  0  0  0  0  0
    2.5635   -0.0821    0.0275 C   0  0  0  0  0  0  0  0  0  0  0  0
    3.7299   -0.7392   -0.0361 N   0  0  0  0  0  0  0  0  0  0  0  0
    3.4132   -2.0726   -0.2048 O   0  0  0  0  0  0  0  0  0  0  0  0
    2.0467   -2.2742   -0.2497 N   0  0  0  0  0  0  0  0  0  0  0  0
    1.4880   -1.0639   -0.1090 C   0  0  0  0  0  0  0  0  0  0  0  0
    0.1063   -0.7059   -0.0853 C   0  0  0  0  0  0  0  0  0  0  0  0
   -0.1063    0.7059    0.0852 C   0  0  0  0  0  0  0  0  0  0  0  0
   -1.4880    1.0639    0.1090 C   0  0  0  0  0  0  0  0  0  0  0  0
   -2.0468    2.2742    0.2497 N   0  0  0  0  0  0  0  0  0  0  0  0
   -3.4132    2.0726    0.2048 O   0  0  0  0  0  0  0  0  0  0  0  0
   -3.7299    0.7392    0.0361 N   0  0  0  0  0  0  0  0  0  0  0  0
   -2.5635    0.0821   -0.0275 C   0  0  0  0  0  0  0  0  0  0  0  0
   -2.3043   -1.2948   -0.1931 C   0  0  0  0  0  0  0  0  0  0  0  0
   -0.9493   -1.6639   -0.2186 C   0  0  0  0  0  0  0  0  0  0  0  0
   -3.6629   -2.5838   -0.3716 Br  0  0  0  0  0  0  0  0  0  0  0  0
    3.6629    2.5838    0.3716 Br  0  0  0  0  0  0  0  0  0  0  0  0
    0.6895    2.7167    0.3443 H   0  0  0  0  0  0  0  0  0  0  0  0
   -0.6895   -2.7167   -0.3442 H   0  0  0  0  0  0  0  0  0  0  0  0
  1  2  2  0
  2  3  1  0
  3  4  2  0
  4  5  1  0
  5  6  1  0
  6  7  2  0
  7  8  1  0
  8  9  2  0
  9 10  1  0
 10 11  2  0
 11 12  1  0
 12 13  1  0
 13 14  2  0
 14 15  1  0
 15 16  2  0
 15 17  1  0
  2 18  1  0
  9  1  1  0
  7  3  1  0
 16  8  1  0
 14 10  1  0
  1 19  1  0
 16 20  1  0
M  END
