
     RDKit          3D

 20 23  0  0  0  0  0  0  0  0999 V2000
    0.5965   -1.8326    0.0566 C   0  0  0  0  0  0  0  0  0  0  0  0
    1.9916   -1.7381    0.1895 C   0  0  0  0  0  0  0  0  0  0  0  0
    2.5173   -0.4299    0.2397 C   0  0  0  0  0  0  0  0  0  0  0  0
    3.7854   -0.0134    0.3606 N   0  0  0  0  0  0  0  0  0  0  0  0
    3.7407    1.3668    0.3564 O   0  0  0  0  0  0  0  0  0  0  0  0
    2.4475    1.8382    0.2333 N   0  0  0  0  0  0  0  0  0  0  0  0
    1.6626    0.7542    0.1584 C   0  0  0  0  0  0  0  0  0  0  0  0
    0.2436    0.6760    0.0233 C   0  0  0  0  0  0  0  0  0  0  0  0
   -0.2436   -0.6760   -0.0233 C   0  0  0  0  0  0  0  0  0  0  0  0
   -1.6626   -0.7542   -0.1585 C   0  0  0  0  0  0  0  0  0  0  0  0
   -2.4475   -1.8382   -0.2333 N   0  0  0  0  0  0  0  0  0  0  0  0
   -3.7407   -1.3668   -0.3564 O   0  0  0  0  0  0  0  0  0  0  0  0
   -3.7854    0.0134   -0.3606 N   0  0  0  0  0  0  0  0  0  0  0  0
   -2.5173    0.4299   -0.2397 C   0  0  0  0  0  0  0  0  0  0  0  0
   -1.9916    1.7381   -0.1895 C   0  0  0  0  0  0  0  0  0  0  0  0
   -0.5965    1.8326   -0.0566 C   0  0  0  0  0  0  0  0  0  0  0  0
   -3.0617    3.2820   -0.2912 Br  0  0  0  0  0  0  0  0  0  0  0  0
    3.0617   -3.2820    0.2912 Br  0  0  0  0  0  0  0  0  0  0  0  0
    0.1345   -2.8207    0.0125 H   0  0  0  0  0  0  0  0  0  0  0  0
   -0.1345    2.8207   -0.0124 H   0  0  0  0  0  0  0  0  0  0  0  0
  1  2  2  0
  2  3  1  0
  3  4  2  0
  4  5  1  0
  5  6  1  0
  6  7  2  0
  7  8  1  0
  8  9  2  0
  9 10  1  0
 10 11  2  0
 11 12  1  0
 12 13  1  0
 13 14  2  0
 14 15  1  0
 15 16  2  0
 15 17  1  0
  2 18  1  0
  9  1  1  0
  7  3  1  0
 16  8  1  0
 14 10  1  0
  1 19  1  0
 16 20  1  0
M  END
