
     RDKit          3D

 20 21  0  0  0  0  0  0  0  0999 V2000
   -5.3630    0.7040    0.1270 Br  0  0  0  0  0  0  0  0  0  0  0  0
   -3.4992    0.4478    0.0398 C   0  0  0  0  0  0  0  0  0  0  0  0
   -2.9591   -0.5920   -0.7005 C   0  0  0  0  0  0  0  0  0  0  0  0
   -1.5702   -0.7528   -0.7431 C   0  0  0  0  0  0  0  0  0  0  0  0
   -0.7406    0.1309   -0.0431 C   0  0  0  0  0  0  0  0  0  0  0  0
    0.7502    0.0359   -0.0314 C   0  0  0  0  0  0  0  0  0  0  0  0
    1.4719   -0.9465   -0.7192 C   0  0  0  0  0  0  0  0  0  0  0  0
    2.8692   -0.9631   -0.6547 C   0  0  0  0  0  0  0  0  0  0  0  0
    3.5251    0.0005    0.0950 C   0  0  0  0  0  0  0  0  0  0  0  0
    5.4048    0.0183    0.2118 Br  0  0  0  0  0  0  0  0  0  0  0  0
    2.7606    0.9441    0.7518 C   0  0  0  0  0  0  0  0  0  0  0  0
    1.4078    0.9779    0.7024 N   0  0  0  0  0  0  0  0  0  0  0  0
   -1.2848    1.1493    0.6812 N   0  0  0  0  0  0  0  0  0  0  0  0
   -2.6315    1.2875    0.7093 C   0  0  0  0  0  0  0  0  0  0  0  0
   -3.5996   -1.2800   -1.2452 H   0  0  0  0  0  0  0  0  0  0  0  0
   -1.1697   -1.5723   -1.3280 H   0  0  0  0  0  0  0  0  0  0  0  0
    0.9800   -1.7092   -1.3111 H   0  0  0  0  0  0  0  0  0  0  0  0
    3.4257   -1.7273   -1.1900 H   0  0  0  0  0  0  0  0  0  0  0  0
    3.2112    1.7261    1.3557 H   0  0  0  0  0  0  0  0  0  0  0  0
   -2.9888    2.1209    1.3068 H   0  0  0  0  0  0  0  0  0  0  0  0
  1  2  1  0
  2  3  2  0
  3  4  1  0
  4  5  2  0
  5  6  1  0
  6  7  2  0
  7  8  1  0
  8  9  2  0
  9 10  1  0
  9 11  1  0
 11 12  2  0
  5 13  1  0
 13 14  2  0
 14  2  1  0
 12  6  1  0
  3 15  1  0
  4 16  1  0
  7 17  1  0
  8 18  1  0
 11 19  1  0
 14 20  1  0
M  END
