
     RDKit          3D

 20 21  0  0  0  0  0  0  0  0999 V2000
   -5.3974   -0.2989    0.2961 Br  0  0  0  0  0  0  0  0  0  0  0  0
   -3.5201   -0.2003    0.1799 C   0  0  0  0  0  0  0  0  0  0  0  0
   -2.8574   -0.6051   -0.9681 C   0  0  0  0  0  0  0  0  0  0  0  0
   -1.4622   -0.5180   -1.0199 C   0  0  0  0  0  0  0  0  0  0  0  0
   -0.7495   -0.0262    0.0797 C   0  0  0  0  0  0  0  0  0  0  0  0
    0.7385    0.1022    0.1137 C   0  0  0  0  0  0  0  0  0  0  0  0
    1.5740   -0.2562   -0.9505 C   0  0  0  0  0  0  0  0  0  0  0  0
    2.9597   -0.1034   -0.8352 C   0  0  0  0  0  0  0  0  0  0  0  0
    3.4907    0.4045    0.3399 C   0  0  0  0  0  0  0  0  0  0  0  0
    5.3498    0.6280    0.5415 Br  0  0  0  0  0  0  0  0  0  0  0  0
    2.6175    0.7405    1.3553 C   0  0  0  0  0  0  0  0  0  0  0  0
    1.2738    0.6005    1.2640 N   0  0  0  0  0  0  0  0  0  0  0  0
   -1.4137    0.3687    1.2026 N   0  0  0  0  0  0  0  0  0  0  0  0
   -2.7643    0.2762    1.2324 C   0  0  0  0  0  0  0  0  0  0  0  0
   -3.4070   -0.9874   -1.8237 H   0  0  0  0  0  0  0  0  0  0  0  0
   -0.9649   -0.8399   -1.9271 H   0  0  0  0  0  0  0  0  0  0  0  0
    1.1807   -0.6551   -1.8780 H   0  0  0  0  0  0  0  0  0  0  0  0
    3.6049   -0.3828   -1.6635 H   0  0  0  0  0  0  0  0  0  0  0  0
    2.9676    1.1433    2.3011 H   0  0  0  0  0  0  0  0  0  0  0  0
   -3.2206    0.6095    2.1598 H   0  0  0  0  0  0  0  0  0  0  0  0
  1  2  1  0
  2  3  2  0
  3  4  1  0
  4  5  2  0
  5  6  1  0
  6  7  2  0
  7  8  1  0
  8  9  2  0
  9 10  1  0
  9 11  1  0
 11 12  2  0
  5 13  1  0
 13 14  2  0
 14  2  1  0
 12  6  1  0
  3 15  1  0
  4 16  1  0
  7 17  1  0
  8 18  1  0
 11 19  1  0
 14 20  1  0
M  END
