
     RDKit          3D

 68 69  0  0  0  0  0  0  0  0999 V2000
   -8.9980   -0.8519    3.7529 C   0  0  0  0  0  0  0  0  0  0  0  0
   -7.5584   -0.9100    3.2654 C   0  0  0  0  0  0  0  0  0  0  0  0
   -7.4164   -0.7399    1.7504 C   0  0  0  0  0  0  0  0  0  0  0  0
   -7.8192    0.6516    1.2571 C   0  0  0  0  0  0  0  0  0  0  0  0
   -7.7065    0.8129   -0.2629 C   0  0  0  0  0  0  0  0  0  0  0  0
   -6.3015    0.6437   -0.8513 C   0  0  0  0  0  0  0  0  0  0  0  0
   -5.2867    1.6439   -0.2907 C   0  0  0  0  0  0  0  0  0  0  0  0
   -3.9644    1.6518   -1.0636 C   0  0  0  0  0  0  0  0  0  0  0  0
   -3.1481    0.3690   -0.8843 C   0  0  0  0  0  0  0  0  0  0  0  0
   -1.8724    0.4106   -1.6665 C   0  0  0  0  0  0  0  0  0  0  0  0
   -1.6618    0.0311   -2.9743 C   0  0  0  0  0  0  0  0  0  0  0  0
   -0.0499    0.2847   -3.4387 S   0  0  0  0  0  0  0  0  0  0  0  0
    0.2945    0.8930   -1.8637 C   0  0  0  0  0  0  0  0  0  0  0  0
   -0.7344    0.9001   -1.0341 N   0  0  0  0  0  0  0  0  0  0  0  0
    1.6153    1.3577   -1.5052 C   0  0  0  0  0  0  0  0  0  0  0  0
    2.6135    1.4479   -2.3666 N   0  0  0  0  0  0  0  0  0  0  0  0
    3.7581    1.9308   -1.7413 C   0  0  0  0  0  0  0  0  0  0  0  0
    3.5864    2.1941   -0.3992 C   0  0  0  0  0  0  0  0  0  0  0  0
    2.0024    1.8426    0.1012 S   0  0  0  0  0  0  0  0  0  0  0  0
    4.9193    2.8643    0.7924 Br  0  0  0  0  0  0  0  0  0  0  0  0
    4.9881    2.0999   -2.5779 C   0  0  0  0  0  0  0  0  0  0  0  0
    6.0129    0.9773   -2.3953 C   0  0  0  0  0  0  0  0  0  0  0  0
    5.5170   -0.3805   -2.9092 C   0  0  0  0  0  0  0  0  0  0  0  0
    6.5170   -1.5136   -2.6504 C   0  0  0  0  0  0  0  0  0  0  0  0
    6.2556   -2.3200   -1.3714 C   0  0  0  0  0  0  0  0  0  0  0  0
    6.2812   -1.4935   -0.0865 C   0  0  0  0  0  0  0  0  0  0  0  0
    6.1888   -2.3829    1.1554 C   0  0  0  0  0  0  0  0  0  0  0  0
    6.0257   -1.5892    2.4540 C   0  0  0  0  0  0  0  0  0  0  0  0
    7.1973   -0.6679    2.7570 C   0  0  0  0  0  0  0  0  0  0  0  0
   -2.9799   -0.6801   -4.1582 Br  0  0  0  0  0  0  0  0  0  0  0  0
   -9.4279    0.1445    3.6180 H   0  0  0  0  0  0  0  0  0  0  0  0
   -9.6236   -1.5753    3.2202 H   0  0  0  0  0  0  0  0  0  0  0  0
   -9.0426   -1.0877    4.8211 H   0  0  0  0  0  0  0  0  0  0  0  0
   -6.9660   -0.1479    3.7850 H   0  0  0  0  0  0  0  0  0  0  0  0
   -7.1372   -1.8830    3.5446 H   0  0  0  0  0  0  0  0  0  0  0  0
   -8.0153   -1.5024    1.2376 H   0  0  0  0  0  0  0  0  0  0  0  0
   -6.3690   -0.9319    1.4918 H   0  0  0  0  0  0  0  0  0  0  0  0
   -7.2179    1.4147    1.7640 H   0  0  0  0  0  0  0  0  0  0  0  0
   -8.8621    0.8494    1.5292 H   0  0  0  0  0  0  0  0  0  0  0  0
   -8.0837    1.8073   -0.5332 H   0  0  0  0  0  0  0  0  0  0  0  0
   -8.3753    0.0902   -0.7474 H   0  0  0  0  0  0  0  0  0  0  0  0
   -5.9547   -0.3823   -0.6903 H   0  0  0  0  0  0  0  0  0  0  0  0
   -6.3737    0.7765   -1.9381 H   0  0  0  0  0  0  0  0  0  0  0  0
   -5.0882    1.4327    0.7660 H   0  0  0  0  0  0  0  0  0  0  0  0
   -5.7154    2.6521   -0.3399 H   0  0  0  0  0  0  0  0  0  0  0  0
   -4.1648    1.8301   -2.1274 H   0  0  0  0  0  0  0  0  0  0  0  0
   -3.3664    2.5056   -0.7187 H   0  0  0  0  0  0  0  0  0  0  0  0
   -2.9099    0.2349    0.1782 H   0  0  0  0  0  0  0  0  0  0  0  0
   -3.7309   -0.5090   -1.1802 H   0  0  0  0  0  0  0  0  0  0  0  0
    5.4595    3.0595   -2.3326 H   0  0  0  0  0  0  0  0  0  0  0  0
    4.7023    2.1652   -3.6355 H   0  0  0  0  0  0  0  0  0  0  0  0
    6.9219    1.2487   -2.9471 H   0  0  0  0  0  0  0  0  0  0  0  0
    6.3035    0.9107   -1.3436 H   0  0  0  0  0  0  0  0  0  0  0  0
    4.5432   -0.6404   -2.4818 H   0  0  0  0  0  0  0  0  0  0  0  0
    5.3681   -0.2927   -3.9925 H   0  0  0  0  0  0  0  0  0  0  0  0
    6.4522   -2.2187   -3.4902 H   0  0  0  0  0  0  0  0  0  0  0  0
    7.5458   -1.1300   -2.6509 H   0  0  0  0  0  0  0  0  0  0  0  0
    5.2845   -2.8234   -1.4566 H   0  0  0  0  0  0  0  0  0  0  0  0
    7.0125   -3.1118   -1.3096 H   0  0  0  0  0  0  0  0  0  0  0  0
    7.2064   -0.9080   -0.0525 H   0  0  0  0  0  0  0  0  0  0  0  0
    5.4381   -0.7940   -0.0829 H   0  0  0  0  0  0  0  0  0  0  0  0
    7.0825   -3.0156    1.2229 H   0  0  0  0  0  0  0  0  0  0  0  0
    5.3296   -3.0581    1.0555 H   0  0  0  0  0  0  0  0  0  0  0  0
    5.9150   -2.2985    3.2829 H   0  0  0  0  0  0  0  0  0  0  0  0
    5.1019   -1.0002    2.4150 H   0  0  0  0  0  0  0  0  0  0  0  0
    7.2654    0.1456    2.0282 H   0  0  0  0  0  0  0  0  0  0  0  0
    8.1432   -1.2185    2.7529 H   0  0  0  0  0  0  0  0  0  0  0  0
    7.0736   -0.2158    3.7469 H   0  0  0  0  0  0  0  0  0  0  0  0
  1  2  1  0
  2  3  1  0
  3  4  1  0
  4  5  1  0
  5  6  1  0
  6  7  1  0
  7  8  1  0
  8  9  1  0
  9 10  1  0
 10 11  2  0
 11 12  1  0
 12 13  1  0
 13 14  2  0
 13 15  1  0
 15 16  2  0
 16 17  1  0
 17 18  2  0
 18 19  1  0
 18 20  1  0
 17 21  1  0
 21 22  1  0
 22 23  1  0
 23 24  1  0
 24 25  1  0
 25 26  1  0
 26 27  1  0
 27 28  1  0
 28 29  1  0
 11 30  1  0
 14 10  1  0
 19 15  1  0
  1 31  1  0
  1 32  1  0
  1 33  1  0
  2 34  1  0
  2 35  1  0
  3 36  1  0
  3 37  1  0
  4 38  1  0
  4 39  1  0
  5 40  1  0
  5 41  1  0
  6 42  1  0
  6 43  1  0
  7 44  1  0
  7 45  1  0
  8 46  1  0
  8 47  1  0
  9 48  1  0
  9 49  1  0
 21 50  1  0
 21 51  1  0
 22 52  1  0
 22 53  1  0
 23 54  1  0
 23 55  1  0
 24 56  1  0
 24 57  1  0
 25 58  1  0
 25 59  1  0
 26 60  1  0
 26 61  1  0
 27 62  1  0
 27 63  1  0
 28 64  1  0
 28 65  1  0
 29 66  1  0
 29 67  1  0
 29 68  1  0
M  END
