
     RDKit          3D

 13 14  0  0  0  0  0  0  0  0999 V2000
    4.1354   -0.6651   -0.4388 Br  0  0  0  0  0  0  0  0  0  0  0  0
    2.2321   -0.5438   -0.2630 C   0  0  0  0  0  0  0  0  0  0  0  0
    1.2384   -1.9160   -0.3743 S   0  0  0  0  0  0  0  0  0  0  0  0
   -0.1647   -0.9797   -0.1249 C   0  0  0  0  0  0  0  0  0  0  0  0
   -1.3780   -1.5583   -0.1056 N   0  0  0  0  0  0  0  0  0  0  0  0
   -2.3620   -0.6770    0.1011 C   0  0  0  0  0  0  0  0  0  0  0  0
   -2.2451    0.6493    0.2790 N   0  0  0  0  0  0  0  0  0  0  0  0
   -1.0061    1.1852    0.2515 C   0  0  0  0  0  0  0  0  0  0  0  0
    0.1097    0.3709    0.0433 C   0  0  0  0  0  0  0  0  0  0  0  0
    1.5173    0.6061   -0.0407 C   0  0  0  0  0  0  0  0  0  0  0  0
    2.2398    2.3483    0.1455 Br  0  0  0  0  0  0  0  0  0  0  0  0
   -3.3707   -1.0780    0.1284 H   0  0  0  0  0  0  0  0  0  0  0  0
   -0.9460    2.2582    0.3983 H   0  0  0  0  0  0  0  0  0  0  0  0
  1  2  1  0
  2  3  1  0
  3  4  1  0
  4  5  2  0
  5  6  1  0
  6  7  2  0
  7  8  1  0
  8  9  2  0
  9 10  1  0
 10 11  1  0
 10  2  2  0
  9  4  1  0
  6 12  1  0
  8 13  1  0
M  END
