
     RDKit          3D

 13 13  0  0  0  0  0  0  0  0999 V2000
   -2.2696    0.2539    0.0672 N   0  0  0  0  0  0  0  0  0  0  0  0
   -0.9018   -0.0033   -0.0604 C   0  0  0  0  0  0  0  0  0  0  0  0
   -0.4091   -1.2882   -0.2756 C   0  0  0  0  0  0  0  0  0  0  0  0
    0.9033   -1.6183   -0.2983 N   0  0  0  0  0  0  0  0  0  0  0  0
    1.7917   -0.6271   -0.0413 C   0  0  0  0  0  0  0  0  0  0  0  0
    3.6213   -1.1536   -0.0915 Br  0  0  0  0  0  0  0  0  0  0  0  0
    1.4028    0.6786    0.2491 C   0  0  0  0  0  0  0  0  0  0  0  0
    2.6121    2.0832    0.6507 Br  0  0  0  0  0  0  0  0  0  0  0  0
    0.0362    0.9777    0.2556 C   0  0  0  0  0  0  0  0  0  0  0  0
   -2.8709   -0.3848   -0.4464 H   0  0  0  0  0  0  0  0  0  0  0  0
   -2.5330    1.2248   -0.0752 H   0  0  0  0  0  0  0  0  0  0  0  0
   -1.0847   -2.1229   -0.4436 H   0  0  0  0  0  0  0  0  0  0  0  0
   -0.2982    1.9801    0.5096 H   0  0  0  0  0  0  0  0  0  0  0  0
  1  2  1  0
  2  3  2  0
  3  4  1  0
  4  5  2  0
  5  6  1  0
  5  7  1  0
  7  8  1  0
  7  9  2  0
  9  2  1  0
  1 10  1  0
  1 11  1  0
  3 12  1  0
  9 13  1  0
M  END
