
     RDKit          3D

 15 16  0  0  0  0  0  0  0  0999 V2000
   -3.6450    1.4496   -0.0325 Br  0  0  0  0  0  0  0  0  0  0  0  0
   -1.9409    0.6037   -0.0348 C   0  0  0  0  0  0  0  0  0  0  0  0
   -0.8249    1.4429    0.1086 C   0  0  0  0  0  0  0  0  0  0  0  0
    0.4534    0.8691    0.1132 C   0  0  0  0  0  0  0  0  0  0  0  0
    1.6825    1.4667    0.2371 N   0  0  0  0  0  0  0  0  0  0  0  0
    2.5530    0.4853    0.1788 C   0  0  0  0  0  0  0  0  0  0  0  0
    1.9387   -0.7251    0.0221 N   0  0  0  0  0  0  0  0  0  0  0  0
    0.5844   -0.5079   -0.0234 C   0  0  0  0  0  0  0  0  0  0  0  0
   -0.5046   -1.3702   -0.1678 C   0  0  0  0  0  0  0  0  0  0  0  0
   -1.7812   -0.7838   -0.1710 C   0  0  0  0  0  0  0  0  0  0  0  0
   -3.2532   -1.9742   -0.3688 Br  0  0  0  0  0  0  0  0  0  0  0  0
   -0.9252    2.5175    0.2152 H   0  0  0  0  0  0  0  0  0  0  0  0
    3.6283    0.5875    0.2434 H   0  0  0  0  0  0  0  0  0  0  0  0
    2.4024   -1.6196   -0.0476 H   0  0  0  0  0  0  0  0  0  0  0  0
   -0.3676   -2.4414   -0.2723 H   0  0  0  0  0  0  0  0  0  0  0  0
  1  2  1  0
  2  3  2  0
  3  4  1  0
  4  5  1  0
  5  6  2  0
  6  7  1  0
  7  8  1  0
  8  9  1  0
  9 10  2  0
 10 11  1  0
 10  2  1  0
  8  4  2  0
  3 12  1  0
  6 13  1  0
  7 14  1  0
  9 15  1  0
M  END
