
     RDKit          3D

 13 14  0  0  0  0  0  0  0  0999 V2000
   -2.7425   -2.1406    0.0080 Br  0  0  0  0  0  0  0  0  0  0  0  0
   -1.2832   -0.9092   -0.0115 C   0  0  0  0  0  0  0  0  0  0  0  0
   -0.0169   -1.4754    0.2418 C   0  0  0  0  0  0  0  0  0  0  0  0
    1.0772   -0.5810    0.2319 C   0  0  0  0  0  0  0  0  0  0  0  0
    2.3602   -0.9066    0.4476 N   0  0  0  0  0  0  0  0  0  0  0  0
    3.2311    0.5035    0.3243 S   0  0  0  0  0  0  0  0  0  0  0  0
    2.0171    1.5887   -0.0083 N   0  0  0  0  0  0  0  0  0  0  0  0
    0.8756    0.8853   -0.0359 C   0  0  0  0  0  0  0  0  0  0  0  0
   -0.4135    1.4083   -0.2850 C   0  0  0  0  0  0  0  0  0  0  0  0
   -1.4741    0.4795   -0.2652 C   0  0  0  0  0  0  0  0  0  0  0  0
   -3.2037    1.2140   -0.6048 Br  0  0  0  0  0  0  0  0  0  0  0  0
    0.1298   -2.5314    0.4349 H   0  0  0  0  0  0  0  0  0  0  0  0
   -0.5572    2.4648   -0.4778 H   0  0  0  0  0  0  0  0  0  0  0  0
  1  2  1  0
  2  3  2  0
  3  4  1  0
  4  5  2  0
  5  6  1  0
  6  7  1  0
  7  8  2  0
  8  9  1  0
  9 10  2  0
 10 11  1  0
 10  2  1  0
  8  4  1  0
  3 12  1  0
  9 13  1  0
M  END
