
     RDKit          3D

 14 15  0  0  0  0  0  0  0  0999 V2000
   -0.9093    2.3267    0.1171 O   0  0  0  0  0  0  0  0  0  0  0  0
   -0.8868    1.1018    0.0735 C   0  0  0  0  0  0  0  0  0  0  0  0
   -2.0545    0.3707    0.0944 N   0  0  0  0  0  0  0  0  0  0  0  0
   -2.0848   -1.0001    0.0479 C   0  0  0  0  0  0  0  0  0  0  0  0
   -1.0406   -1.7581   -0.0199 N   0  0  0  0  0  0  0  0  0  0  0  0
    0.1396   -1.0826   -0.0432 C   0  0  0  0  0  0  0  0  0  0  0  0
    1.6277   -1.9148   -0.1312 S   0  0  0  0  0  0  0  0  0  0  0  0
    2.5032   -0.4596   -0.1153 C   0  0  0  0  0  0  0  0  0  0  0  0
    4.4182   -0.4464   -0.1908 Br  0  0  0  0  0  0  0  0  0  0  0  0
    1.6921    0.6463   -0.0447 C   0  0  0  0  0  0  0  0  0  0  0  0
    2.2924    2.4423   -0.0060 Br  0  0  0  0  0  0  0  0  0  0  0  0
    0.3125    0.2903   -0.0023 C   0  0  0  0  0  0  0  0  0  0  0  0
   -2.9082    0.9066    0.1469 H   0  0  0  0  0  0  0  0  0  0  0  0
   -3.1016   -1.4232    0.0736 H   0  0  0  0  0  0  0  0  0  0  0  0
  1  2  2  0
  2  3  1  0
  3  4  1  0
  4  5  2  0
  5  6  1  0
  6  7  1  0
  7  8  1  0
  8  9  1  0
  8 10  2  0
 10 11  1  0
 10 12  1  0
 12  2  1  0
 12  6  2  0
  3 13  1  0
  4 14  1  0
M  END
