
     RDKit          3D

 22 23  0  0  0  0  0  0  0  0999 V2000
   -2.7331    1.1717    0.1866 C   0  0  0  0  0  0  0  0  0  0  0  0
   -2.1329   -0.0794    0.8084 C   0  0  0  0  0  0  0  0  0  0  0  0
   -0.9828   -0.5562    0.0784 N   0  0  0  0  0  0  0  0  0  0  0  0
   -1.1260   -1.4816   -0.9522 C   0  0  0  0  0  0  0  0  0  0  0  0
   -2.1253   -2.0315   -1.3636 O   0  0  0  0  0  0  0  0  0  0  0  0
    0.2870   -1.6875   -1.5196 C   0  0  0  0  0  0  0  0  0  0  0  0
    0.6205   -2.4255   -2.4173 O   0  0  0  0  0  0  0  0  0  0  0  0
    1.1517   -0.7994   -0.7494 C   0  0  0  0  0  0  0  0  0  0  0  0
    2.5154   -0.6251   -0.9110 C   0  0  0  0  0  0  0  0  0  0  0  0
    3.1300    0.2862   -0.0659 C   0  0  0  0  0  0  0  0  0  0  0  0
    4.9893    0.5913   -0.2127 Br  0  0  0  0  0  0  0  0  0  0  0  0
    2.3868    0.9861    0.8970 C   0  0  0  0  0  0  0  0  0  0  0  0
    0.9985    0.7861    1.0369 C   0  0  0  0  0  0  0  0  0  0  0  0
    0.1564    1.8112    2.3866 Br  0  0  0  0  0  0  0  0  0  0  0  0
    0.3648   -0.1264    0.1979 C   0  0  0  0  0  0  0  0  0  0  0  0
   -2.0089    1.9899    0.1381 H   0  0  0  0  0  0  0  0  0  0  0  0
   -3.0712    0.9733   -0.8362 H   0  0  0  0  0  0  0  0  0  0  0  0
   -3.5954    1.5094    0.7696 H   0  0  0  0  0  0  0  0  0  0  0  0
   -2.8992   -0.8646    0.7870 H   0  0  0  0  0  0  0  0  0  0  0  0
   -1.8871    0.0556    1.8625 H   0  0  0  0  0  0  0  0  0  0  0  0
    3.0629   -1.1796   -1.6669 H   0  0  0  0  0  0  0  0  0  0  0  0
    2.8989    1.6960    1.5459 H   0  0  0  0  0  0  0  0  0  0  0  0
  1  2  1  0
  2  3  1  0
  3  4  1  0
  4  5  2  0
  4  6  1  0
  6  7  2  0
  6  8  1  0
  8  9  2  0
  9 10  1  0
 10 11  1  0
 10 12  2  0
 12 13  1  0
 13 14  1  0
 13 15  2  0
 15  3  1  0
 15  8  1  0
  1 16  1  0
  1 17  1  0
  1 18  1  0
  2 19  1  0
  2 20  1  0
  9 21  1  0
 12 22  1  0
M  END
