
     RDKit          3D

 21 22  0  0  0  0  0  0  0  0999 V2000
    2.3269   -1.8581    0.0307 C   0  0  0  0  0  0  0  0  0  0  0  0
    2.2024   -0.6958   -0.7858 O   0  0  0  0  0  0  0  0  0  0  0  0
    1.2245    0.1899   -0.3774 C   0  0  0  0  0  0  0  0  0  0  0  0
    1.6026    1.5400   -0.3344 C   0  0  0  0  0  0  0  0  0  0  0  0
    3.3713    2.0987   -0.7527 Br  0  0  0  0  0  0  0  0  0  0  0  0
    0.6896    2.5164    0.0375 C   0  0  0  0  0  0  0  0  0  0  0  0
   -0.6152    2.1462    0.3528 C   0  0  0  0  0  0  0  0  0  0  0  0
   -1.7902    3.5617    0.8554 Br  0  0  0  0  0  0  0  0  0  0  0  0
   -1.0320    0.7923    0.2905 C   0  0  0  0  0  0  0  0  0  0  0  0
   -2.3494    0.3649    0.5797 C   0  0  0  0  0  0  0  0  0  0  0  0
   -2.7081   -0.9723    0.4833 C   0  0  0  0  0  0  0  0  0  0  0  0
   -1.7374   -1.8636    0.0973 C   0  0  0  0  0  0  0  0  0  0  0  0
   -0.4681   -1.5044   -0.1812 N   0  0  0  0  0  0  0  0  0  0  0  0
   -0.0972   -0.2045   -0.0884 C   0  0  0  0  0  0  0  0  0  0  0  0
    1.7513   -2.6844   -0.3957 H   0  0  0  0  0  0  0  0  0  0  0  0
    3.3804   -2.1551    0.0215 H   0  0  0  0  0  0  0  0  0  0  0  0
    2.0451   -1.6774    1.0743 H   0  0  0  0  0  0  0  0  0  0  0  0
    0.9927    3.5597    0.0800 H   0  0  0  0  0  0  0  0  0  0  0  0
   -3.1192    1.0719    0.8787 H   0  0  0  0  0  0  0  0  0  0  0  0
   -3.7176   -1.3024    0.6992 H   0  0  0  0  0  0  0  0  0  0  0  0
   -1.9525   -2.9235   -0.0037 H   0  0  0  0  0  0  0  0  0  0  0  0
  1  2  1  0
  2  3  1  0
  3  4  2  0
  4  5  1  0
  4  6  1  0
  6  7  2  0
  7  8  1  0
  7  9  1  0
  9 10  2  0
 10 11  1  0
 11 12  2  0
 12 13  1  0
 13 14  2  0
 14  3  1  0
 14  9  1  0
  1 15  1  0
  1 16  1  0
  1 17  1  0
  6 18  1  0
 10 19  1  0
 11 20  1  0
 12 21  1  0
M  END
