
     RDKit          3D

 17 18  0  0  0  0  0  0  0  0999 V2000
   -3.7217   -2.1552    0.1921 Br  0  0  0  0  0  0  0  0  0  0  0  0
   -2.1974   -1.0380    0.1451 C   0  0  0  0  0  0  0  0  0  0  0  0
   -2.3378    0.3268    0.3478 C   0  0  0  0  0  0  0  0  0  0  0  0
   -1.2039    1.1394    0.3104 C   0  0  0  0  0  0  0  0  0  0  0  0
   -1.4804    3.0018    0.5980 Br  0  0  0  0  0  0  0  0  0  0  0  0
    0.0826    0.5915    0.0692 C   0  0  0  0  0  0  0  0  0  0  0  0
    1.2834    1.3349    0.0137 C   0  0  0  0  0  0  0  0  0  0  0  0
    2.4985    0.7046   -0.2293 C   0  0  0  0  0  0  0  0  0  0  0  0
    2.4896   -0.6611   -0.4127 C   0  0  0  0  0  0  0  0  0  0  0  0
    1.3706   -1.4139   -0.3691 N   0  0  0  0  0  0  0  0  0  0  0  0
    0.1973   -0.8030   -0.1341 C   0  0  0  0  0  0  0  0  0  0  0  0
   -0.9421   -1.5911   -0.0927 C   0  0  0  0  0  0  0  0  0  0  0  0
   -3.3196    0.7547    0.5332 H   0  0  0  0  0  0  0  0  0  0  0  0
    1.2861    2.4120    0.1589 H   0  0  0  0  0  0  0  0  0  0  0  0
    3.4243    1.2669   -0.2736 H   0  0  0  0  0  0  0  0  0  0  0  0
    3.4081   -1.2080   -0.6060 H   0  0  0  0  0  0  0  0  0  0  0  0
   -0.8375   -2.6623   -0.2511 H   0  0  0  0  0  0  0  0  0  0  0  0
  1  2  1  0
  2  3  2  0
  3  4  1  0
  4  5  1  0
  4  6  2  0
  6  7  1  0
  7  8  2  0
  8  9  1  0
  9 10  2  0
 10 11  1  0
 11 12  2  0
 12  2  1  0
 11  6  1  0
  3 13  1  0
  7 14  1  0
  8 15  1  0
  9 16  1  0
 12 17  1  0
M  END
