
     RDKit          3D

 17 18  0  0  0  0  0  0  0  0999 V2000
    4.1082   -1.2713   -0.1983 Br  0  0  0  0  0  0  0  0  0  0  0  0
    2.3761   -0.5271   -0.0575 C   0  0  0  0  0  0  0  0  0  0  0  0
    2.2261    0.8039    0.3026 C   0  0  0  0  0  0  0  0  0  0  0  0
    0.9415    1.3399    0.4026 C   0  0  0  0  0  0  0  0  0  0  0  0
    0.8200    3.1740    0.9020 Br  0  0  0  0  0  0  0  0  0  0  0  0
   -0.2059    0.5466    0.1426 C   0  0  0  0  0  0  0  0  0  0  0  0
   -1.5415    1.0026    0.2188 C   0  0  0  0  0  0  0  0  0  0  0  0
   -2.6014    0.1458   -0.0555 C   0  0  0  0  0  0  0  0  0  0  0  0
   -2.3045   -1.1546   -0.4018 C   0  0  0  0  0  0  0  0  0  0  0  0
   -1.0472   -1.6367   -0.4880 N   0  0  0  0  0  0  0  0  0  0  0  0
   -0.0243   -0.8072   -0.2226 C   0  0  0  0  0  0  0  0  0  0  0  0
    1.2605   -1.3188   -0.3159 C   0  0  0  0  0  0  0  0  0  0  0  0
    3.0997    1.4186    0.5035 H   0  0  0  0  0  0  0  0  0  0  0  0
   -1.7714    2.0290    0.4923 H   0  0  0  0  0  0  0  0  0  0  0  0
   -3.6288    0.4869    0.0004 H   0  0  0  0  0  0  0  0  0  0  0  0
   -3.0909   -1.8695   -0.6271 H   0  0  0  0  0  0  0  0  0  0  0  0
    1.3838   -2.3621   -0.5980 H   0  0  0  0  0  0  0  0  0  0  0  0
  1  2  1  0
  2  3  2  0
  3  4  1  0
  4  5  1  0
  4  6  2  0
  6  7  1  0
  7  8  2  0
  8  9  1  0
  9 10  2  0
 10 11  1  0
 11 12  2  0
 12  2  1  0
 11  6  1  0
  3 13  1  0
  7 14  1  0
  8 15  1  0
  9 16  1  0
 12 17  1  0
M  END
