
     RDKit          3D

 17 18  0  0  0  0  0  0  0  0999 V2000
    3.2731   -2.3447   -0.7842 Br  0  0  0  0  0  0  0  0  0  0  0  0
    1.9485   -1.0519   -0.3911 C   0  0  0  0  0  0  0  0  0  0  0  0
    2.3394    0.2508   -0.0444 C   0  0  0  0  0  0  0  0  0  0  0  0
    1.3693    1.2144    0.2413 C   0  0  0  0  0  0  0  0  0  0  0  0
    1.8950    2.9684    0.7007 Br  0  0  0  0  0  0  0  0  0  0  0  0
    0.0359    0.8482    0.1833 C   0  0  0  0  0  0  0  0  0  0  0  0
   -0.3442   -0.4423   -0.1622 C   0  0  0  0  0  0  0  0  0  0  0  0
    0.5996   -1.4106   -0.4598 C   0  0  0  0  0  0  0  0  0  0  0  0
   -1.8214   -0.5235   -0.2144 C   0  0  0  0  0  0  0  0  0  0  0  0
   -2.1585    0.7714    0.5228 C   0  0  0  0  0  0  0  0  0  0  0  0
   -1.0339    1.6747    0.4242 O   0  0  0  0  0  0  0  0  0  0  0  0
    3.3940    0.5100   -0.0020 H   0  0  0  0  0  0  0  0  0  0  0  0
    0.2970   -2.4133   -0.7445 H   0  0  0  0  0  0  0  0  0  0  0  0
   -2.2357   -1.3999    0.2900 H   0  0  0  0  0  0  0  0  0  0  0  0
   -2.1655   -0.4884   -1.2530 H   0  0  0  0  0  0  0  0  0  0  0  0
   -2.3441    0.5835    1.5882 H   0  0  0  0  0  0  0  0  0  0  0  0
   -3.0485    1.2531    0.1051 H   0  0  0  0  0  0  0  0  0  0  0  0
  1  2  1  0
  2  3  2  0
  3  4  1  0
  4  5  1  0
  4  6  2  0
  6  7  1  0
  7  8  2  0
  7  9  1  0
  9 10  1  0
 10 11  1  0
  8  2  1  0
 11  6  1  0
  3 12  1  0
  8 13  1  0
  9 14  1  0
  9 15  1  0
 10 16  1  0
 10 17  1  0
M  END
