
     RDKit          3D

 21 22  0  0  0  0  0  0  0  0999 V2000
   -3.0678   -1.8153    0.5455 O   0  0  0  0  0  0  0  0  0  0  0  0
   -2.1564   -1.0678    0.1896 C   0  0  0  0  0  0  0  0  0  0  0  0
   -2.3268    0.4249    0.1773 C   0  0  0  0  0  0  0  0  0  0  0  0
   -1.1410    1.0668    0.8793 C   0  0  0  0  0  0  0  0  0  0  0  0
    0.1888    0.6293    0.3043 C   0  0  0  0  0  0  0  0  0  0  0  0
    1.3426    1.4336    0.3978 C   0  0  0  0  0  0  0  0  0  0  0  0
    1.3331    3.1353    1.2476 Br  0  0  0  0  0  0  0  0  0  0  0  0
    2.5658    1.0014   -0.1235 C   0  0  0  0  0  0  0  0  0  0  0  0
    2.6545   -0.2466   -0.7274 C   0  0  0  0  0  0  0  0  0  0  0  0
    4.3071   -0.8348   -1.4316 Br  0  0  0  0  0  0  0  0  0  0  0  0
    1.5371   -1.0723   -0.8062 C   0  0  0  0  0  0  0  0  0  0  0  0
    0.3016   -0.6494   -0.2862 C   0  0  0  0  0  0  0  0  0  0  0  0
   -0.8650   -1.6083   -0.3717 C   0  0  0  0  0  0  0  0  0  0  0  0
   -2.4059    0.7539   -0.8650 H   0  0  0  0  0  0  0  0  0  0  0  0
   -3.2569    0.6898    0.6910 H   0  0  0  0  0  0  0  0  0  0  0  0
   -1.2693    2.1501    0.7906 H   0  0  0  0  0  0  0  0  0  0  0  0
   -1.1511    0.8102    1.9461 H   0  0  0  0  0  0  0  0  0  0  0  0
    3.4472    1.6337   -0.0517 H   0  0  0  0  0  0  0  0  0  0  0  0
    1.6230   -2.0553   -1.2667 H   0  0  0  0  0  0  0  0  0  0  0  0
   -0.6143   -2.5194    0.1836 H   0  0  0  0  0  0  0  0  0  0  0  0
   -1.0463   -1.8599   -1.4227 H   0  0  0  0  0  0  0  0  0  0  0  0
  1  2  2  0
  2  3  1  0
  3  4  1  0
  4  5  1  0
  5  6  2  0
  6  7  1  0
  6  8  1  0
  8  9  2  0
  9 10  1  0
  9 11  1  0
 11 12  2  0
 12 13  1  0
 13  2  1  0
 12  5  1  0
  3 14  1  0
  3 15  1  0
  4 16  1  0
  4 17  1  0
  8 18  1  0
 11 19  1  0
 13 20  1  0
 13 21  1  0
M  END
