
     RDKit          3D

 15 16  0  0  0  0  0  0  0  0999 V2000
   -2.9422   -2.4720   -0.0651 Br  0  0  0  0  0  0  0  0  0  0  0  0
   -1.5829   -1.1542   -0.0347 C   0  0  0  0  0  0  0  0  0  0  0  0
   -1.9389    0.1946   -0.0402 C   0  0  0  0  0  0  0  0  0  0  0  0
   -0.9525    1.1837   -0.0181 C   0  0  0  0  0  0  0  0  0  0  0  0
   -1.4268    3.0089   -0.0254 Br  0  0  0  0  0  0  0  0  0  0  0  0
    0.3819    0.7723    0.0091 C   0  0  0  0  0  0  0  0  0  0  0  0
    1.5594    1.4725    0.0347 N   0  0  0  0  0  0  0  0  0  0  0  0
    2.6586    0.6978    0.0565 N   0  0  0  0  0  0  0  0  0  0  0  0
    2.1655   -0.5430    0.0444 C   0  0  0  0  0  0  0  0  0  0  0  0
    0.7536   -0.5683    0.0149 C   0  0  0  0  0  0  0  0  0  0  0  0
   -0.2427   -1.5597   -0.0074 C   0  0  0  0  0  0  0  0  0  0  0  0
   -2.9885    0.4789   -0.0616 H   0  0  0  0  0  0  0  0  0  0  0  0
    1.6768    2.4800    0.0386 H   0  0  0  0  0  0  0  0  0  0  0  0
    2.8522   -1.3798    0.0575 H   0  0  0  0  0  0  0  0  0  0  0  0
    0.0264   -2.6117   -0.0033 H   0  0  0  0  0  0  0  0  0  0  0  0
  1  2  1  0
  2  3  2  0
  3  4  1  0
  4  5  1  0
  4  6  2  0
  6  7  1  0
  7  8  1  0
  8  9  2  0
  9 10  1  0
 10 11  2  0
 11  2  1  0
 10  6  1  0
  3 12  1  0
  7 13  1  0
  9 14  1  0
 11 15  1  0
M  END
