
     RDKit          3D

 24 25  0  0  0  0  0  0  0  0999 V2000
   -1.6487   -1.8450    1.0077 N   0  0  0  0  0  0  0  0  0  0  0  0
   -1.2769   -0.8114    0.0368 C   0  0  0  0  0  0  0  0  0  0  0  0
   -2.0634    0.4568    0.3939 C   0  0  0  0  0  0  0  0  0  0  0  0
   -1.5994    1.6180   -0.4670 C   0  0  0  0  0  0  0  0  0  0  0  0
   -0.1408    1.9415   -0.1626 C   0  0  0  0  0  0  0  0  0  0  0  0
    0.7685    0.7301   -0.1464 C   0  0  0  0  0  0  0  0  0  0  0  0
    2.1712    0.8869   -0.1972 C   0  0  0  0  0  0  0  0  0  0  0  0
    3.0021    2.5988   -0.2673 Br  0  0  0  0  0  0  0  0  0  0  0  0
    3.0233   -0.2190   -0.1900 C   0  0  0  0  0  0  0  0  0  0  0  0
    2.4845   -1.4956   -0.1257 C   0  0  0  0  0  0  0  0  0  0  0  0
    3.6305   -2.9997   -0.1359 Br  0  0  0  0  0  0  0  0  0  0  0  0
    1.1058   -1.6777   -0.0506 C   0  0  0  0  0  0  0  0  0  0  0  0
    0.2272   -0.5755   -0.0300 C   0  0  0  0  0  0  0  0  0  0  0  0
   -1.3524   -2.7569    0.6683 H   0  0  0  0  0  0  0  0  0  0  0  0
   -2.6638   -1.8955    1.0784 H   0  0  0  0  0  0  0  0  0  0  0  0
   -1.5947   -1.1429   -0.9607 H   0  0  0  0  0  0  0  0  0  0  0  0
   -1.9303    0.7159    1.4534 H   0  0  0  0  0  0  0  0  0  0  0  0
   -3.1367    0.2905    0.2386 H   0  0  0  0  0  0  0  0  0  0  0  0
   -1.7166    1.3645   -1.5282 H   0  0  0  0  0  0  0  0  0  0  0  0
   -2.2191    2.5018   -0.2777 H   0  0  0  0  0  0  0  0  0  0  0  0
   -0.0771    2.4294    0.8182 H   0  0  0  0  0  0  0  0  0  0  0  0
    0.1935    2.6585   -0.9206 H   0  0  0  0  0  0  0  0  0  0  0  0
    4.1006   -0.0841   -0.2351 H   0  0  0  0  0  0  0  0  0  0  0  0
    0.7128   -2.6896   -0.0002 H   0  0  0  0  0  0  0  0  0  0  0  0
  1  2  1  0
  2  3  1  0
  3  4  1  0
  4  5  1  0
  5  6  1  0
  6  7  2  0
  7  8  1  0
  7  9  1  0
  9 10  2  0
 10 11  1  0
 10 12  1  0
 12 13  2  0
 13  2  1  0
 13  6  1  0
  1 14  1  0
  1 15  1  0
  2 16  1  0
  3 17  1  0
  3 18  1  0
  4 19  1  0
  4 20  1  0
  5 21  1  0
  5 22  1  0
  9 23  1  0
 12 24  1  0
M  END
