
     RDKit          3D

 16 17  0  0  0  0  0  0  0  0999 V2000
    3.7457   -1.5450    0.0400 Br  0  0  0  0  0  0  0  0  0  0  0  0
    2.0721   -0.6598    0.0218 C   0  0  0  0  0  0  0  0  0  0  0  0
    2.0354    0.7322    0.0191 C   0  0  0  0  0  0  0  0  0  0  0  0
    0.8098    1.4012    0.0057 C   0  0  0  0  0  0  0  0  0  0  0  0
    0.7592    3.2889    0.0020 Br  0  0  0  0  0  0  0  0  0  0  0  0
   -0.3641    0.6378   -0.0047 C   0  0  0  0  0  0  0  0  0  0  0  0
   -1.6878    1.0213   -0.0186 N   0  0  0  0  0  0  0  0  0  0  0  0
   -2.5009   -0.0801   -0.0248 C   0  0  0  0  0  0  0  0  0  0  0  0
   -1.6975   -1.1972   -0.0149 C   0  0  0  0  0  0  0  0  0  0  0  0
   -0.3446   -0.7584   -0.0022 C   0  0  0  0  0  0  0  0  0  0  0  0
    0.8981   -1.4214    0.0114 C   0  0  0  0  0  0  0  0  0  0  0  0
    2.9619    1.3009    0.0274 H   0  0  0  0  0  0  0  0  0  0  0  0
   -2.0008    1.9832   -0.0234 H   0  0  0  0  0  0  0  0  0  0  0  0
   -3.5776    0.0253   -0.0358 H   0  0  0  0  0  0  0  0  0  0  0  0
   -2.0442   -2.2225   -0.0166 H   0  0  0  0  0  0  0  0  0  0  0  0
    0.9355   -2.5066    0.0136 H   0  0  0  0  0  0  0  0  0  0  0  0
  1  2  1  0
  2  3  2  0
  3  4  1  0
  4  5  1  0
  4  6  2  0
  6  7  1  0
  7  8  1  0
  8  9  2  0
  9 10  1  0
 10 11  2  0
 11  2  1  0
 10  6  1  0
  3 12  1  0
  7 13  1  0
  8 14  1  0
  9 15  1  0
 11 16  1  0
M  END
