
     RDKit          3D

 21 22  0  0  0  0  0  0  0  0999 V2000
   -0.2101   -2.9136    0.1120 O   0  0  0  0  0  0  0  0  0  0  0  0
   -0.5449   -1.7353    0.0257 C   0  0  0  0  0  0  0  0  0  0  0  0
   -1.9899   -1.3381   -0.1499 C   0  0  0  0  0  0  0  0  0  0  0  0
   -2.2539    0.0362    0.4338 C   0  0  0  0  0  0  0  0  0  0  0  0
   -1.3404    1.0783   -0.2011 C   0  0  0  0  0  0  0  0  0  0  0  0
    0.1170    0.6964   -0.0963 C   0  0  0  0  0  0  0  0  0  0  0  0
    1.1456    1.6547   -0.1650 C   0  0  0  0  0  0  0  0  0  0  0  0
    0.7931    3.5076   -0.4097 Br  0  0  0  0  0  0  0  0  0  0  0  0
    2.4899    1.2782   -0.0702 C   0  0  0  0  0  0  0  0  0  0  0  0
    2.8243   -0.0636    0.0781 C   0  0  0  0  0  0  0  0  0  0  0  0
    4.6411   -0.5687    0.2052 Br  0  0  0  0  0  0  0  0  0  0  0  0
    1.8321   -1.0356    0.1198 C   0  0  0  0  0  0  0  0  0  0  0  0
    0.4852   -0.6590    0.0233 C   0  0  0  0  0  0  0  0  0  0  0  0
   -2.6162   -2.0739    0.3664 H   0  0  0  0  0  0  0  0  0  0  0  0
   -2.2297   -1.3687   -1.2183 H   0  0  0  0  0  0  0  0  0  0  0  0
   -3.3016    0.3149    0.2744 H   0  0  0  0  0  0  0  0  0  0  0  0
   -2.0873    0.0133    1.5188 H   0  0  0  0  0  0  0  0  0  0  0  0
   -1.5951    1.2070   -1.2600 H   0  0  0  0  0  0  0  0  0  0  0  0
   -1.5322    2.0264    0.3122 H   0  0  0  0  0  0  0  0  0  0  0  0
    3.2745    2.0300   -0.1175 H   0  0  0  0  0  0  0  0  0  0  0  0
    2.0986   -2.0866    0.2182 H   0  0  0  0  0  0  0  0  0  0  0  0
  1  2  2  0
  2  3  1  0
  3  4  1  0
  4  5  1  0
  5  6  1  0
  6  7  2  0
  7  8  1  0
  7  9  1  0
  9 10  2  0
 10 11  1  0
 10 12  1  0
 12 13  2  0
 13  2  1  0
 13  6  1  0
  3 14  1  0
  3 15  1  0
  4 16  1  0
  4 17  1  0
  5 18  1  0
  5 19  1  0
  9 20  1  0
 12 21  1  0
M  END
