
     RDKit          3D

 15 16  0  0  0  0  0  0  0  0999 V2000
    2.7462   -2.6830   -0.3924 Br  0  0  0  0  0  0  0  0  0  0  0  0
    2.0362   -0.9119   -0.2765 C   0  0  0  0  0  0  0  0  0  0  0  0
    3.0139    0.4796   -0.3815 S   0  0  0  0  0  0  0  0  0  0  0  0
    1.6630    1.5006   -0.1918 C   0  0  0  0  0  0  0  0  0  0  0  0
    1.8034    3.4071   -0.1835 Br  0  0  0  0  0  0  0  0  0  0  0  0
    0.4919    0.7981   -0.0650 C   0  0  0  0  0  0  0  0  0  0  0  0
    0.7126   -0.6065   -0.0875 C   0  0  0  0  0  0  0  0  0  0  0  0
   -0.2693   -1.5334    0.0433 O   0  0  0  0  0  0  0  0  0  0  0  0
   -1.4704   -0.9252    0.5515 C   0  0  0  0  0  0  0  0  0  0  0  0
   -1.7705    0.4095   -0.1412 C   0  0  0  0  0  0  0  0  0  0  0  0
   -0.7271    1.3748    0.0829 O   0  0  0  0  0  0  0  0  0  0  0  0
   -1.3527   -0.7869    1.6336 H   0  0  0  0  0  0  0  0  0  0  0  0
   -2.2925   -1.6284    0.3850 H   0  0  0  0  0  0  0  0  0  0  0  0
   -1.8830    0.2720   -1.2240 H   0  0  0  0  0  0  0  0  0  0  0  0
   -2.7017    0.8336    0.2473 H   0  0  0  0  0  0  0  0  0  0  0  0
  1  2  1  0
  2  3  1  0
  3  4  1  0
  4  5  1  0
  4  6  2  0
  6  7  1  0
  7  8  1  0
  8  9  1  0
  9 10  1  0
 10 11  1  0
  7  2  2  0
 11  6  1  0
  9 12  1  0
  9 13  1  0
 10 14  1  0
 10 15  1  0
M  END
