
     RDKit          3D

 17 18  0  0  0  0  0  0  0  0999 V2000
    3.5928    0.6650    0.0168 O   0  0  0  0  0  0  0  0  0  0  0  0
    2.3986    0.4201    0.0058 C   0  0  0  0  0  0  0  0  0  0  0  0
    1.7457   -0.9368   -0.2788 C   0  0  0  0  0  0  0  0  0  0  0  0
    0.2851   -0.6176   -0.1514 C   0  0  0  0  0  0  0  0  0  0  0  0
   -0.8147   -1.4439   -0.2984 C   0  0  0  0  0  0  0  0  0  0  0  0
   -2.0817   -0.8777   -0.1219 C   0  0  0  0  0  0  0  0  0  0  0  0
   -3.6166   -1.9686   -0.3129 Br  0  0  0  0  0  0  0  0  0  0  0  0
   -2.2415    0.4835    0.1942 C   0  0  0  0  0  0  0  0  0  0  0  0
   -1.1196    1.3021    0.3386 C   0  0  0  0  0  0  0  0  0  0  0  0
   -1.3250    3.1288    0.7625 Br  0  0  0  0  0  0  0  0  0  0  0  0
    0.1280    0.7325    0.1621 C   0  0  0  0  0  0  0  0  0  0  0  0
    1.3791    1.3301    0.2513 N   0  0  0  0  0  0  0  0  0  0  0  0
    1.9953   -1.2597   -1.2925 H   0  0  0  0  0  0  0  0  0  0  0  0
    2.0615   -1.6623    0.4747 H   0  0  0  0  0  0  0  0  0  0  0  0
   -0.6947   -2.4949   -0.5424 H   0  0  0  0  0  0  0  0  0  0  0  0
   -3.2386    0.8965    0.3256 H   0  0  0  0  0  0  0  0  0  0  0  0
    1.5463    2.3029    0.4667 H   0  0  0  0  0  0  0  0  0  0  0  0
  1  2  2  0
  2  3  1  0
  3  4  1  0
  4  5  2  0
  5  6  1  0
  6  7  1  0
  6  8  2  0
  8  9  1  0
  9 10  1  0
  9 11  2  0
 11 12  1  0
 12  2  1  0
 11  4  1  0
  3 13  1  0
  3 14  1  0
  5 15  1  0
  8 16  1  0
 12 17  1  0
M  END
