
     RDKit          3D

 22 23  0  0  0  0  0  0  0  0999 V2000
   -2.9130   -0.2171   -0.6388 C   0  0  0  0  0  0  0  0  0  0  0  0
   -2.1633   -0.0526    0.6738 C   0  0  0  0  0  0  0  0  0  0  0  0
   -0.8506    0.5173    0.4872 N   0  0  0  0  0  0  0  0  0  0  0  0
   -0.6587    1.8957    0.5331 C   0  0  0  0  0  0  0  0  0  0  0  0
   -1.4587    2.7804    0.7515 O   0  0  0  0  0  0  0  0  0  0  0  0
    0.8313    2.1142    0.2282 C   0  0  0  0  0  0  0  0  0  0  0  0
    1.4288    3.1644    0.1861 O   0  0  0  0  0  0  0  0  0  0  0  0
    1.3825    0.7834   -0.0059 C   0  0  0  0  0  0  0  0  0  0  0  0
    2.6914    0.4742   -0.3339 C   0  0  0  0  0  0  0  0  0  0  0  0
    2.9849   -0.8679   -0.5206 C   0  0  0  0  0  0  0  0  0  0  0  0
    4.7456   -1.3862   -0.9714 Br  0  0  0  0  0  0  0  0  0  0  0  0
    1.9890   -1.8465   -0.3800 C   0  0  0  0  0  0  0  0  0  0  0  0
    0.6646   -1.4994   -0.0448 C   0  0  0  0  0  0  0  0  0  0  0  0
   -0.5468   -2.9457    0.1056 Br  0  0  0  0  0  0  0  0  0  0  0  0
    0.3518   -0.1567    0.1480 C   0  0  0  0  0  0  0  0  0  0  0  0
   -2.3705   -0.8575   -1.3400 H   0  0  0  0  0  0  0  0  0  0  0  0
   -3.0588    0.7525   -1.1271 H   0  0  0  0  0  0  0  0  0  0  0  0
   -3.8982   -0.6589   -0.4607 H   0  0  0  0  0  0  0  0  0  0  0  0
   -2.0985   -0.9847    1.2367 H   0  0  0  0  0  0  0  0  0  0  0  0
   -2.7437    0.6297    1.3077 H   0  0  0  0  0  0  0  0  0  0  0  0
    3.4393    1.2542   -0.4381 H   0  0  0  0  0  0  0  0  0  0  0  0
    2.2514   -2.8929   -0.5337 H   0  0  0  0  0  0  0  0  0  0  0  0
  1  2  1  0
  2  3  1  0
  3  4  1  0
  4  5  2  0
  4  6  1  0
  6  7  2  0
  6  8  1  0
  8  9  2  0
  9 10  1  0
 10 11  1  0
 10 12  2  0
 12 13  1  0
 13 14  1  0
 13 15  2  0
 15  3  1  0
 15  8  1  0
  1 16  1  0
  1 17  1  0
  1 18  1  0
  2 19  1  0
  2 20  1  0
  9 21  1  0
 12 22  1  0
M  END
