
     RDKit          3D

 19 20  0  0  0  0  0  0  0  0999 V2000
   -1.3338    2.3971    0.7455 O   0  0  0  0  0  0  0  0  0  0  0  0
   -1.1897    1.2585    0.3180 C   0  0  0  0  0  0  0  0  0  0  0  0
   -2.3866    0.4504   -0.1021 C   0  0  0  0  0  0  0  0  0  0  0  0
   -2.1133   -0.9953    0.2283 C   0  0  0  0  0  0  0  0  0  0  0  0
   -0.9847   -1.4713   -0.5038 O   0  0  0  0  0  0  0  0  0  0  0  0
    0.1470   -0.7237   -0.2913 C   0  0  0  0  0  0  0  0  0  0  0  0
    1.3445   -1.3908   -0.5585 C   0  0  0  0  0  0  0  0  0  0  0  0
    2.5536   -0.7338   -0.3706 C   0  0  0  0  0  0  0  0  0  0  0  0
    4.1772   -1.6362   -0.7164 Br  0  0  0  0  0  0  0  0  0  0  0  0
    2.5749    0.5856    0.0725 C   0  0  0  0  0  0  0  0  0  0  0  0
    1.3737    1.2675    0.3228 C   0  0  0  0  0  0  0  0  0  0  0  0
    1.5703    3.0699    0.8950 Br  0  0  0  0  0  0  0  0  0  0  0  0
    0.1430    0.6163    0.1345 C   0  0  0  0  0  0  0  0  0  0  0  0
   -3.2683    0.7990    0.4448 H   0  0  0  0  0  0  0  0  0  0  0  0
   -2.5414    0.6016   -1.1756 H   0  0  0  0  0  0  0  0  0  0  0  0
   -2.9724   -1.6109   -0.0583 H   0  0  0  0  0  0  0  0  0  0  0  0
   -1.9434   -1.1509    1.3018 H   0  0  0  0  0  0  0  0  0  0  0  0
    1.3204   -2.4222   -0.9025 H   0  0  0  0  0  0  0  0  0  0  0  0
    3.5292    1.0890    0.2160 H   0  0  0  0  0  0  0  0  0  0  0  0
  1  2  2  0
  2  3  1  0
  3  4  1  0
  4  5  1  0
  5  6  1  0
  6  7  2  0
  7  8  1  0
  8  9  1  0
  8 10  2  0
 10 11  1  0
 11 12  1  0
 11 13  2  0
 13  2  1  0
 13  6  1  0
  3 14  1  0
  3 15  1  0
  4 16  1  0
  4 17  1  0
  7 18  1  0
 10 19  1  0
M  END
