
     RDKit          3D

 13 14  0  0  0  0  0  0  0  0999 V2000
   -0.3332    3.3934   -0.5707 Br  0  0  0  0  0  0  0  0  0  0  0  0
   -0.5932    1.5397   -0.2442 C   0  0  0  0  0  0  0  0  0  0  0  0
   -1.8174    1.1034   -0.1285 N   0  0  0  0  0  0  0  0  0  0  0  0
   -1.9918   -0.2514    0.1096 C   0  0  0  0  0  0  0  0  0  0  0  0
   -0.9875   -1.1437    0.2291 C   0  0  0  0  0  0  0  0  0  0  0  0
   -1.2906   -2.9540    0.5496 Br  0  0  0  0  0  0  0  0  0  0  0  0
    0.3197   -0.6690    0.1040 N   0  0  0  0  0  0  0  0  0  0  0  0
    1.5242   -1.2957    0.1713 N   0  0  0  0  0  0  0  0  0  0  0  0
    2.3820   -0.2931   -0.0293 C   0  0  0  0  0  0  0  0  0  0  0  0
    1.8242    0.9359   -0.2214 N   0  0  0  0  0  0  0  0  0  0  0  0
    0.5403    0.6709   -0.1331 C   0  0  0  0  0  0  0  0  0  0  0  0
   -3.0285   -0.5713    0.1991 H   0  0  0  0  0  0  0  0  0  0  0  0
    3.4519   -0.4651   -0.0356 H   0  0  0  0  0  0  0  0  0  0  0  0
  1  2  1  0
  2  3  2  0
  3  4  1  0
  4  5  2  0
  5  6  1  0
  5  7  1  0
  7  8  1  0
  8  9  2  0
  9 10  1  0
 10 11  2  0
 11  2  1  0
 11  7  1  0
  4 12  1  0
  9 13  1  0
M  END
