
     RDKit          3D

 16 17  0  0  0  0  0  0  0  0999 V2000
    1.4157    3.1178    0.5072 Br  0  0  0  0  0  0  0  0  0  0  0  0
    1.1535    1.2517    0.2204 C   0  0  0  0  0  0  0  0  0  0  0  0
    2.2989    0.4573    0.1344 C   0  0  0  0  0  0  0  0  0  0  0  0
    2.1648   -0.9057   -0.0736 C   0  0  0  0  0  0  0  0  0  0  0  0
    0.8870   -1.4567   -0.1926 C   0  0  0  0  0  0  0  0  0  0  0  0
    0.7804   -3.3385   -0.4773 Br  0  0  0  0  0  0  0  0  0  0  0  0
   -0.2765   -0.6773   -0.1093 C   0  0  0  0  0  0  0  0  0  0  0  0
   -1.5085   -1.2366   -0.2283 N   0  0  0  0  0  0  0  0  0  0  0  0
   -2.5790   -0.4229   -0.1372 C   0  0  0  0  0  0  0  0  0  0  0  0
   -2.4461    0.9278    0.0688 C   0  0  0  0  0  0  0  0  0  0  0  0
   -1.2380    1.5126    0.1909 N   0  0  0  0  0  0  0  0  0  0  0  0
   -0.1391    0.7191    0.1037 C   0  0  0  0  0  0  0  0  0  0  0  0
    3.2902    0.8943    0.2282 H   0  0  0  0  0  0  0  0  0  0  0  0
    3.0515   -1.5315   -0.1420 H   0  0  0  0  0  0  0  0  0  0  0  0
   -3.5494   -0.8952   -0.2357 H   0  0  0  0  0  0  0  0  0  0  0  0
   -3.3054    1.5839    0.1424 H   0  0  0  0  0  0  0  0  0  0  0  0
  1  2  1  0
  2  3  2  0
  3  4  1  0
  4  5  2  0
  5  6  1  0
  5  7  1  0
  7  8  2  0
  8  9  1  0
  9 10  2  0
 10 11  1  0
 11 12  2  0
 12  2  1  0
 12  7  1  0
  3 13  1  0
  4 14  1  0
  9 15  1  0
 10 16  1  0
M  END
