
     RDKit          3D

 44 47  0  0  0  0  0  0  0  0999 V2000
    4.3537    4.0595   -0.3696 C   0  0  0  0  0  0  0  0  0  0  0  0
    4.4873    2.8935    0.4333 O   0  0  0  0  0  0  0  0  0  0  0  0
    3.5314    1.9278    0.2836 C   0  0  0  0  0  0  0  0  0  0  0  0
    2.4464    1.9737   -0.5889 C   0  0  0  0  0  0  0  0  0  0  0  0
    1.5355    0.9092   -0.6394 C   0  0  0  0  0  0  0  0  0  0  0  0
    1.6792   -0.2171    0.1888 C   0  0  0  0  0  0  0  0  0  0  0  0
    2.7905   -0.2540    1.0465 C   0  0  0  0  0  0  0  0  0  0  0  0
    3.7005    0.8067    1.0959 C   0  0  0  0  0  0  0  0  0  0  0  0
    0.7264   -1.3415    0.1537 C   0  0  0  0  0  0  0  0  0  0  0  0
    1.3185   -2.5581    0.0058 N   0  0  0  0  0  0  0  0  0  0  0  0
    0.5416   -3.6620   -0.0982 C   0  0  0  0  0  0  0  0  0  0  0  0
    1.1064   -4.9361   -0.2562 C   0  0  0  0  0  0  0  0  0  0  0  0
    0.3259   -6.0878   -0.3755 C   0  0  0  0  0  0  0  0  0  0  0  0
   -1.0544   -5.9770   -0.3383 C   0  0  0  0  0  0  0  0  0  0  0  0
   -1.6336   -4.7165   -0.1793 C   0  0  0  0  0  0  0  0  0  0  0  0
   -0.8652   -3.5497   -0.0548 C   0  0  0  0  0  0  0  0  0  0  0  0
   -1.4495   -2.3392    0.1078 N   0  0  0  0  0  0  0  0  0  0  0  0
   -0.6638   -1.2344    0.2328 C   0  0  0  0  0  0  0  0  0  0  0  0
   -1.4206    0.0088    0.4707 C   0  0  0  0  0  0  0  0  0  0  0  0
   -1.1001    0.8909    1.5147 C   0  0  0  0  0  0  0  0  0  0  0  0
   -1.8334    2.0654    1.7160 C   0  0  0  0  0  0  0  0  0  0  0  0
   -2.9144    2.3825    0.8932 C   0  0  0  0  0  0  0  0  0  0  0  0
   -3.2605    1.5095   -0.1351 C   0  0  0  0  0  0  0  0  0  0  0  0
   -2.5232    0.3354   -0.3385 C   0  0  0  0  0  0  0  0  0  0  0  0
   -3.5424    3.5575    1.1992 O   0  0  0  0  0  0  0  0  0  0  0  0
   -4.6788    3.9010    0.4164 C   0  0  0  0  0  0  0  0  0  0  0  0
   -3.5373   -4.6359   -0.1373 Br  0  0  0  0  0  0  0  0  0  0  0  0
    2.9979   -5.1606   -0.3170 Br  0  0  0  0  0  0  0  0  0  0  0  0
    4.4225    3.8152   -1.4348 H   0  0  0  0  0  0  0  0  0  0  0  0
    3.4225    4.5899   -0.1442 H   0  0  0  0  0  0  0  0  0  0  0  0
    5.1848    4.7290   -0.1275 H   0  0  0  0  0  0  0  0  0  0  0  0
    2.2770    2.8185   -1.2482 H   0  0  0  0  0  0  0  0  0  0  0  0
    0.7080    0.9720   -1.3440 H   0  0  0  0  0  0  0  0  0  0  0  0
    2.9559   -1.1202    1.6853 H   0  0  0  0  0  0  0  0  0  0  0  0
    4.5506    0.7536    1.7718 H   0  0  0  0  0  0  0  0  0  0  0  0
    0.7868   -7.0652   -0.4977 H   0  0  0  0  0  0  0  0  0  0  0  0
   -1.6710   -6.8679   -0.4316 H   0  0  0  0  0  0  0  0  0  0  0  0
   -0.2770    0.6739    2.1928 H   0  0  0  0  0  0  0  0  0  0  0  0
   -1.5607    2.7353    2.5283 H   0  0  0  0  0  0  0  0  0  0  0  0
   -4.0987    1.7038   -0.7957 H   0  0  0  0  0  0  0  0  0  0  0  0
   -2.8202   -0.3384   -1.1416 H   0  0  0  0  0  0  0  0  0  0  0  0
   -4.4042    4.0493   -0.6332 H   0  0  0  0  0  0  0  0  0  0  0  0
   -5.4696    3.1502    0.5166 H   0  0  0  0  0  0  0  0  0  0  0  0
   -5.0710    4.8499    0.7948 H   0  0  0  0  0  0  0  0  0  0  0  0
  1  2  1  0
  2  3  1  0
  3  4  2  0
  4  5  1  0
  5  6  2  0
  6  7  1  0
  7  8  2  0
  6  9  1  0
  9 10  2  0
 10 11  1  0
 11 12  2  0
 12 13  1  0
 13 14  2  0
 14 15  1  0
 15 16  2  0
 16 17  1  0
 17 18  2  0
 18 19  1  0
 19 20  2  0
 20 21  1  0
 21 22  2  0
 22 23  1  0
 23 24  2  0
 22 25  1  0
 25 26  1  0
 15 27  1  0
 12 28  1  0
  8  3  1  0
 18  9  1  0
 16 11  1  0
 24 19  1  0
  1 29  1  0
  1 30  1  0
  1 31  1  0
  4 32  1  0
  5 33  1  0
  7 34  1  0
  8 35  1  0
 13 36  1  0
 14 37  1  0
 20 38  1  0
 21 39  1  0
 23 40  1  0
 24 41  1  0
 26 42  1  0
 26 43  1  0
 26 44  1  0
M  END
