
     RDKit          3D

 36 39  0  0  0  0  0  0  0  0999 V2000
    3.6641   -2.5845    0.2880 C   0  0  0  0  0  0  0  0  0  0  0  0
    3.4446   -1.5602   -0.6290 C   0  0  0  0  0  0  0  0  0  0  0  0
    2.1839   -0.9635   -0.7251 C   0  0  0  0  0  0  0  0  0  0  0  0
    1.1222   -1.3699    0.1027 C   0  0  0  0  0  0  0  0  0  0  0  0
    1.3645   -2.4193    1.0080 C   0  0  0  0  0  0  0  0  0  0  0  0
    2.6233   -3.0182    1.1041 C   0  0  0  0  0  0  0  0  0  0  0  0
   -0.2146   -0.7531    0.0193 C   0  0  0  0  0  0  0  0  0  0  0  0
   -1.2283   -1.6541   -0.1017 N   0  0  0  0  0  0  0  0  0  0  0  0
   -2.4970   -1.2047   -0.2464 C   0  0  0  0  0  0  0  0  0  0  0  0
   -3.5723   -2.0951   -0.3809 C   0  0  0  0  0  0  0  0  0  0  0  0
   -4.8882   -1.6560   -0.5410 C   0  0  0  0  0  0  0  0  0  0  0  0
   -5.1491   -0.2958   -0.5694 C   0  0  0  0  0  0  0  0  0  0  0  0
   -4.0907    0.6049   -0.4342 C   0  0  0  0  0  0  0  0  0  0  0  0
   -2.7636    0.1817   -0.2699 C   0  0  0  0  0  0  0  0  0  0  0  0
   -1.7551    1.0739   -0.1314 N   0  0  0  0  0  0  0  0  0  0  0  0
   -0.4827    0.6175    0.0320 C   0  0  0  0  0  0  0  0  0  0  0  0
    0.5108    1.6874    0.2384 C   0  0  0  0  0  0  0  0  0  0  0  0
    1.4198    1.6642    1.3112 C   0  0  0  0  0  0  0  0  0  0  0  0
    2.3552    2.6880    1.4882 C   0  0  0  0  0  0  0  0  0  0  0  0
    2.3908    3.7620    0.6030 C   0  0  0  0  0  0  0  0  0  0  0  0
    1.4878    3.8177   -0.4548 C   0  0  0  0  0  0  0  0  0  0  0  0
    0.5549    2.7925   -0.6312 C   0  0  0  0  0  0  0  0  0  0  0  0
   -4.5207    2.4610   -0.4819 Br  0  0  0  0  0  0  0  0  0  0  0  0
   -3.2848   -3.9788   -0.3509 Br  0  0  0  0  0  0  0  0  0  0  0  0
    4.6431   -3.0511    0.3595 H   0  0  0  0  0  0  0  0  0  0  0  0
    4.2521   -1.2266   -1.2757 H   0  0  0  0  0  0  0  0  0  0  0  0
    2.0387   -0.1765   -1.4629 H   0  0  0  0  0  0  0  0  0  0  0  0
    0.5586   -2.7799    1.6457 H   0  0  0  0  0  0  0  0  0  0  0  0
    2.7858   -3.8269    1.8119 H   0  0  0  0  0  0  0  0  0  0  0  0
   -5.7056   -2.3656   -0.6441 H   0  0  0  0  0  0  0  0  0  0  0  0
   -6.1703    0.0563   -0.6949 H   0  0  0  0  0  0  0  0  0  0  0  0
    1.4057    0.8462    2.0292 H   0  0  0  0  0  0  0  0  0  0  0  0
    3.0516    2.6468    2.3219 H   0  0  0  0  0  0  0  0  0  0  0  0
    3.1152    4.5599    0.7434 H   0  0  0  0  0  0  0  0  0  0  0  0
    1.5023    4.6608   -1.1405 H   0  0  0  0  0  0  0  0  0  0  0  0
   -0.1521    2.8590   -1.4571 H   0  0  0  0  0  0  0  0  0  0  0  0
  1  2  2  0
  2  3  1  0
  3  4  2  0
  4  5  1  0
  5  6  2  0
  4  7  1  0
  7  8  2  0
  8  9  1  0
  9 10  2  0
 10 11  1  0
 11 12  2  0
 12 13  1  0
 13 14  2  0
 14 15  1  0
 15 16  2  0
 16 17  1  0
 17 18  2  0
 18 19  1  0
 19 20  2  0
 20 21  1  0
 21 22  2  0
 13 23  1  0
 10 24  1  0
  6  1  1  0
 16  7  1  0
 14  9  1  0
 22 17  1  0
  1 25  1  0
  2 26  1  0
  3 27  1  0
  5 28  1  0
  6 29  1  0
 11 30  1  0
 12 31  1  0
 18 32  1  0
 19 33  1  0
 20 34  1  0
 21 35  1  0
 22 36  1  0
M  END
