
     RDKit          3D

 16 17  0  0  0  0  0  0  0  0999 V2000
   -0.5153   -3.3582   -0.4339 Br  0  0  0  0  0  0  0  0  0  0  0  0
   -0.9332   -1.5194   -0.2054 C   0  0  0  0  0  0  0  0  0  0  0  0
   -2.2740   -1.1686   -0.1781 C   0  0  0  0  0  0  0  0  0  0  0  0
   -2.7077    0.0937   -0.0231 N   0  0  0  0  0  0  0  0  0  0  0  0
   -1.7497    1.0504    0.1110 C   0  0  0  0  0  0  0  0  0  0  0  0
   -2.4207    2.8282    0.3285 Br  0  0  0  0  0  0  0  0  0  0  0  0
   -0.3630    0.8317    0.1011 C   0  0  0  0  0  0  0  0  0  0  0  0
    0.5414    1.8390    0.2410 N   0  0  0  0  0  0  0  0  0  0  0  0
    1.8586    1.5547    0.2218 C   0  0  0  0  0  0  0  0  0  0  0  0
    2.3548    0.2818    0.0663 C   0  0  0  0  0  0  0  0  0  0  0  0
    1.4421   -0.7559   -0.0775 C   0  0  0  0  0  0  0  0  0  0  0  0
    0.0488   -0.5100   -0.0643 C   0  0  0  0  0  0  0  0  0  0  0  0
   -3.0615   -1.9106   -0.2827 H   0  0  0  0  0  0  0  0  0  0  0  0
    2.5202    2.4085    0.3390 H   0  0  0  0  0  0  0  0  0  0  0  0
    3.4232    0.0970    0.0566 H   0  0  0  0  0  0  0  0  0  0  0  0
    1.8360   -1.7621   -0.2004 H   0  0  0  0  0  0  0  0  0  0  0  0
  1  2  1  0
  2  3  2  0
  3  4  1  0
  4  5  2  0
  5  6  1  0
  5  7  1  0
  7  8  2  0
  8  9  1  0
  9 10  2  0
 10 11  1  0
 11 12  2  0
 12  2  1  0
 12  7  1  0
  3 13  1  0
  9 14  1  0
 10 15  1  0
 11 16  1  0
M  END
