
     RDKit          3D

 17 18  0  0  0  0  0  0  0  0999 V2000
    1.9767   -2.7500    0.4727 Br  0  0  0  0  0  0  0  0  0  0  0  0
    1.4116   -0.9498    0.2002 C   0  0  0  0  0  0  0  0  0  0  0  0
    2.4236    0.0077    0.1217 C   0  0  0  0  0  0  0  0  0  0  0  0
    2.0912    1.3393   -0.0755 C   0  0  0  0  0  0  0  0  0  0  0  0
    0.7472    1.7054   -0.1932 C   0  0  0  0  0  0  0  0  0  0  0  0
    0.3823    3.5582   -0.4627 Br  0  0  0  0  0  0  0  0  0  0  0  0
   -0.2969    0.7715   -0.1195 C   0  0  0  0  0  0  0  0  0  0  0  0
   -1.5868    1.1673   -0.2385 N   0  0  0  0  0  0  0  0  0  0  0  0
   -2.5723    0.2509   -0.1643 C   0  0  0  0  0  0  0  0  0  0  0  0
   -2.3455   -1.0910    0.0290 C   0  0  0  0  0  0  0  0  0  0  0  0
   -1.0273   -1.5110    0.1527 C   0  0  0  0  0  0  0  0  0  0  0  0
    0.0429   -0.5887    0.0819 C   0  0  0  0  0  0  0  0  0  0  0  0
    3.4700   -0.2742    0.2129 H   0  0  0  0  0  0  0  0  0  0  0  0
    2.8783    2.0869   -0.1369 H   0  0  0  0  0  0  0  0  0  0  0  0
   -3.5795    0.6441   -0.2686 H   0  0  0  0  0  0  0  0  0  0  0  0
   -3.1682   -1.7947    0.0826 H   0  0  0  0  0  0  0  0  0  0  0  0
   -0.8474   -2.5720    0.3055 H   0  0  0  0  0  0  0  0  0  0  0  0
  1  2  1  0
  2  3  2  0
  3  4  1  0
  4  5  2  0
  5  6  1  0
  5  7  1  0
  7  8  2  0
  8  9  1  0
  9 10  2  0
 10 11  1  0
 11 12  2  0
 12  2  1  0
 12  7  1  0
  3 13  1  0
  4 14  1  0
  9 15  1  0
 10 16  1  0
 11 17  1  0
M  END
