
     RDKit          3D

 22 23  0  0  0  0  0  0  0  0999 V2000
   -1.4962    0.8980   -1.6541 C   0  0  0  0  0  0  0  0  0  0  0  0
   -1.6798    0.9155   -0.1457 C   0  0  0  0  0  0  0  0  0  0  0  0
   -1.2647   -0.3213    0.4814 N   0  0  0  0  0  0  0  0  0  0  0  0
   -2.0705   -1.3658    0.8538 C   0  0  0  0  0  0  0  0  0  0  0  0
   -3.7895   -1.3922    0.7198 S   0  0  0  0  0  0  0  0  0  0  0  0
   -1.3470   -2.3611    1.3020 N   0  0  0  0  0  0  0  0  0  0  0  0
   -0.0320   -1.9821    1.2180 N   0  0  0  0  0  0  0  0  0  0  0  0
    0.0205   -0.7499    0.7459 C   0  0  0  0  0  0  0  0  0  0  0  0
    1.2667   -0.0803    0.5047 C   0  0  0  0  0  0  0  0  0  0  0  0
    2.4058   -0.6758   -0.0119 C   0  0  0  0  0  0  0  0  0  0  0  0
    3.4941    0.2322   -0.1036 C   0  0  0  0  0  0  0  0  0  0  0  0
    5.1578   -0.3259   -0.8010 Br  0  0  0  0  0  0  0  0  0  0  0  0
    3.1681    1.4768    0.3642 C   0  0  0  0  0  0  0  0  0  0  0  0
    4.3338    2.9930    0.4243 Br  0  0  0  0  0  0  0  0  0  0  0  0
    1.5661    1.5544    0.9221 S   0  0  0  0  0  0  0  0  0  0  0  0
   -1.8393    1.8424   -2.0879 H   0  0  0  0  0  0  0  0  0  0  0  0
   -2.0693    0.0846   -2.1115 H   0  0  0  0  0  0  0  0  0  0  0  0
   -0.4456    0.7614   -1.9292 H   0  0  0  0  0  0  0  0  0  0  0  0
   -2.7303    1.1026    0.0960 H   0  0  0  0  0  0  0  0  0  0  0  0
   -1.1285    1.7411    0.3073 H   0  0  0  0  0  0  0  0  0  0  0  0
   -3.9601   -2.6283    1.2124 H   0  0  0  0  0  0  0  0  0  0  0  0
    2.4400   -1.7192   -0.3070 H   0  0  0  0  0  0  0  0  0  0  0  0
  1  2  1  0
  2  3  1  0
  3  4  1  0
  4  5  1  0
  4  6  2  0
  6  7  1  0
  7  8  2  0
  8  9  1  0
  9 10  2  0
 10 11  1  0
 11 12  1  0
 11 13  2  0
 13 14  1  0
 13 15  1  0
  8  3  1  0
 15  9  1  0
  1 16  1  0
  1 17  1  0
  1 18  1  0
  2 19  1  0
  2 20  1  0
  5 21  1  0
 10 22  1  0
M  END
