
     RDKit          3D

 22 23  0  0  0  0  0  0  0  0999 V2000
   -1.9220    1.2712   -1.4602 C   0  0  0  0  0  0  0  0  0  0  0  0
   -1.5539   -0.1168   -0.9606 C   0  0  0  0  0  0  0  0  0  0  0  0
   -1.1713   -0.1367    0.4356 N   0  0  0  0  0  0  0  0  0  0  0  0
   -2.0147   -0.2264    1.5127 C   0  0  0  0  0  0  0  0  0  0  0  0
   -3.7369   -0.2011    1.4270 S   0  0  0  0  0  0  0  0  0  0  0  0
   -1.3270   -0.3506    2.6199 N   0  0  0  0  0  0  0  0  0  0  0  0
    0.0011   -0.3530    2.2782 N   0  0  0  0  0  0  0  0  0  0  0  0
    0.0994   -0.2017    0.9696 C   0  0  0  0  0  0  0  0  0  0  0  0
    1.3695   -0.1796    0.3004 C   0  0  0  0  0  0  0  0  0  0  0  0
    2.4750   -0.9333    0.6606 C   0  0  0  0  0  0  0  0  0  0  0  0
    3.6001   -0.6698   -0.1653 C   0  0  0  0  0  0  0  0  0  0  0  0
    5.2286   -1.5869    0.1044 Br  0  0  0  0  0  0  0  0  0  0  0  0
    3.3345    0.2856   -1.1090 C   0  0  0  0  0  0  0  0  0  0  0  0
    4.5653    0.9395   -2.4201 Br  0  0  0  0  0  0  0  0  0  0  0  0
    1.7451    0.8728   -0.9994 S   0  0  0  0  0  0  0  0  0  0  0  0
   -2.8016    1.6631   -0.9401 H   0  0  0  0  0  0  0  0  0  0  0  0
   -2.1520    1.2381   -2.5297 H   0  0  0  0  0  0  0  0  0  0  0  0
   -1.1084    1.9861   -1.3076 H   0  0  0  0  0  0  0  0  0  0  0  0
   -0.7377   -0.5386   -1.5541 H   0  0  0  0  0  0  0  0  0  0  0  0
   -2.3981   -0.8027   -1.0918 H   0  0  0  0  0  0  0  0  0  0  0  0
   -3.9552   -0.3202    2.7452 H   0  0  0  0  0  0  0  0  0  0  0  0
    2.4603   -1.6391    1.4843 H   0  0  0  0  0  0  0  0  0  0  0  0
  1  2  1  0
  2  3  1  0
  3  4  1  0
  4  5  1  0
  4  6  2  0
  6  7  1  0
  7  8  2  0
  8  9  1  0
  9 10  2  0
 10 11  1  0
 11 12  1  0
 11 13  2  0
 13 14  1  0
 13 15  1  0
  8  3  1  0
 15  9  1  0
  1 16  1  0
  1 17  1  0
  1 18  1  0
  2 19  1  0
  2 20  1  0
  5 21  1  0
 10 22  1  0
M  END
