
     RDKit          3D

 18 19  0  0  0  0  0  0  0  0999 V2000
   -2.6286   -0.7292   -0.2940 C   0  0  0  0  0  0  0  0  0  0  0  0
   -1.2477   -0.9180   -0.2019 C   0  0  0  0  0  0  0  0  0  0  0  0
   -0.4149    0.1906   -0.0477 C   0  0  0  0  0  0  0  0  0  0  0  0
   -0.9117    1.4509    0.0153 N   0  0  0  0  0  0  0  0  0  0  0  0
   -2.2541    1.6090   -0.0764 C   0  0  0  0  0  0  0  0  0  0  0  0
   -3.1410    0.5587   -0.2300 C   0  0  0  0  0  0  0  0  0  0  0  0
   -4.9959    0.8645   -0.3496 Br  0  0  0  0  0  0  0  0  0  0  0  0
    1.0523    0.0606    0.0558 C   0  0  0  0  0  0  0  0  0  0  0  0
    1.8443   -1.0809    0.0253 C   0  0  0  0  0  0  0  0  0  0  0  0
    3.2395   -0.8033    0.1562 C   0  0  0  0  0  0  0  0  0  0  0  0
    3.4631    0.5412    0.2821 C   0  0  0  0  0  0  0  0  0  0  0  0
    2.0474    1.4612    0.2463 S   0  0  0  0  0  0  0  0  0  0  0  0
    5.2037    1.3053    0.4791 Br  0  0  0  0  0  0  0  0  0  0  0  0
   -3.2849   -1.5864   -0.4142 H   0  0  0  0  0  0  0  0  0  0  0  0
   -0.8489   -1.9247   -0.2520 H   0  0  0  0  0  0  0  0  0  0  0  0
   -2.5949    2.6388   -0.0198 H   0  0  0  0  0  0  0  0  0  0  0  0
    1.4526   -2.0841   -0.0862 H   0  0  0  0  0  0  0  0  0  0  0  0
    4.0197   -1.5542    0.1562 H   0  0  0  0  0  0  0  0  0  0  0  0
  1  2  2  0
  2  3  1  0
  3  4  2  0
  4  5  1  0
  5  6  2  0
  6  7  1  0
  3  8  1  0
  8  9  2  0
  9 10  1  0
 10 11  2  0
 11 12  1  0
 11 13  1  0
  6  1  1  0
 12  8  1  0
  1 14  1  0
  2 15  1  0
  5 16  1  0
  9 17  1  0
 10 18  1  0
M  END
