
     RDKit          3D

 15 15  0  0  0  0  0  0  0  0999 V2000
    2.2561   -0.0464    0.0888 C   0  0  0  0  0  0  0  0  0  0  0  0
    0.7518   -0.0156    0.0296 C   0  0  0  0  0  0  0  0  0  0  0  0
    0.0650   -1.2268   -0.1656 C   0  0  0  0  0  0  0  0  0  0  0  0
   -1.3266   -1.2522   -0.2278 C   0  0  0  0  0  0  0  0  0  0  0  0
   -2.1427   -2.7477   -0.4675 Cl  0  0  0  0  0  0  0  0  0  0  0  0
   -2.0599   -0.0788   -0.0977 C   0  0  0  0  0  0  0  0  0  0  0  0
   -1.3961    1.1365    0.0971 C   0  0  0  0  0  0  0  0  0  0  0  0
   -2.4953    2.6816    0.2628 Br  0  0  0  0  0  0  0  0  0  0  0  0
    0.0088    1.1773    0.1619 C   0  0  0  0  0  0  0  0  0  0  0  0
    0.9296    2.8300    0.4276 Br  0  0  0  0  0  0  0  0  0  0  0  0
    2.6095    0.3171    1.0590 H   0  0  0  0  0  0  0  0  0  0  0  0
    2.6843    0.5606   -0.7152 H   0  0  0  0  0  0  0  0  0  0  0  0
    2.6418   -1.0643   -0.0346 H   0  0  0  0  0  0  0  0  0  0  0  0
    0.6190   -2.1581   -0.2701 H   0  0  0  0  0  0  0  0  0  0  0  0
   -3.1454   -0.1132   -0.1482 H   0  0  0  0  0  0  0  0  0  0  0  0
  1  2  1  0
  2  3  2  0
  3  4  1  0
  4  5  1  0
  4  6  2  0
  6  7  1  0
  7  8  1  0
  7  9  2  0
  9 10  1  0
  9  2  1  0
  1 11  1  0
  1 12  1  0
  1 13  1  0
  3 14  1  0
  6 15  1  0
M  END
