
     RDKit          3D

 12 12  0  0  0  0  0  0  0  0999 V2000
    0.9197   -2.5250    0.3051 F   0  0  0  0  0  0  0  0  0  0  0  0
    0.4632   -1.2718    0.1537 C   0  0  0  0  0  0  0  0  0  0  0  0
    1.3302   -0.1900    0.3044 C   0  0  0  0  0  0  0  0  0  0  0  0
    3.1536   -0.4718    0.7224 Br  0  0  0  0  0  0  0  0  0  0  0  0
    0.8609    1.1148    0.1480 C   0  0  0  0  0  0  0  0  0  0  0  0
   -0.4830    1.3260   -0.1602 C   0  0  0  0  0  0  0  0  0  0  0  0
   -1.0680    2.9322   -0.3543 Cl  0  0  0  0  0  0  0  0  0  0  0  0
   -1.3583    0.2508   -0.3131 C   0  0  0  0  0  0  0  0  0  0  0  0
   -0.8785   -1.0499   -0.1545 C   0  0  0  0  0  0  0  0  0  0  0  0
   -2.0692   -2.5053   -0.3627 Br  0  0  0  0  0  0  0  0  0  0  0  0
    1.5331    1.9614    0.2646 H   0  0  0  0  0  0  0  0  0  0  0  0
   -2.4036    0.4287   -0.5534 H   0  0  0  0  0  0  0  0  0  0  0  0
  1  2  1  0
  2  3  2  0
  3  4  1  0
  3  5  1  0
  5  6  2  0
  6  7  1  0
  6  8  1  0
  8  9  2  0
  9 10  1  0
  9  2  1  0
  5 11  1  0
  8 12  1  0
M  END
