
     RDKit          3D

 12 12  0  0  0  0  0  0  0  0999 V2000
   -0.0218    2.7225    0.2129 F   0  0  0  0  0  0  0  0  0  0  0  0
   -0.0248    1.3850    0.1079 C   0  0  0  0  0  0  0  0  0  0  0  0
   -1.2542    0.7396    0.0163 C   0  0  0  0  0  0  0  0  0  0  0  0
   -1.2862   -0.6452   -0.0934 C   0  0  0  0  0  0  0  0  0  0  0  0
   -2.7978   -1.4572   -0.2074 Cl  0  0  0  0  0  0  0  0  0  0  0  0
   -0.1022   -1.3814   -0.1118 C   0  0  0  0  0  0  0  0  0  0  0  0
    1.1316   -0.7247   -0.0192 C   0  0  0  0  0  0  0  0  0  0  0  0
    2.6893   -1.8123   -0.0528 Br  0  0  0  0  0  0  0  0  0  0  0  0
    1.1763    0.6698    0.0917 C   0  0  0  0  0  0  0  0  0  0  0  0
    2.8014    1.6433    0.2221 Br  0  0  0  0  0  0  0  0  0  0  0  0
   -2.1678    1.3258    0.0319 H   0  0  0  0  0  0  0  0  0  0  0  0
   -0.1438   -2.4652   -0.1982 H   0  0  0  0  0  0  0  0  0  0  0  0
  1  2  1  0
  2  3  2  0
  3  4  1  0
  4  5  1  0
  4  6  2  0
  6  7  1  0
  7  8  1  0
  7  9  2  0
  9 10  1  0
  9  2  1  0
  3 11  1  0
  6 12  1  0
M  END
