
     RDKit          3D

 15 15  0  0  0  0  0  0  0  0999 V2000
    2.2372   -0.0468   -0.3045 C   0  0  0  0  0  0  0  0  0  0  0  0
    0.7455   -0.0158   -0.1015 C   0  0  0  0  0  0  0  0  0  0  0  0
    0.0493   -1.2368   -0.0675 C   0  0  0  0  0  0  0  0  0  0  0  0
   -1.3313   -1.2624    0.1178 C   0  0  0  0  0  0  0  0  0  0  0  0
   -2.1592   -2.7700    0.1555 Cl  0  0  0  0  0  0  0  0  0  0  0  0
   -2.0441   -0.0794    0.2722 C   0  0  0  0  0  0  0  0  0  0  0  0
   -1.3707    1.1458    0.2415 C   0  0  0  0  0  0  0  0  0  0  0  0
   -2.4419    2.7036    0.4628 Br  0  0  0  0  0  0  0  0  0  0  0  0
    0.0233    1.1870    0.0552 C   0  0  0  0  0  0  0  0  0  0  0  0
    0.9570    2.8531    0.0110 Br  0  0  0  0  0  0  0  0  0  0  0  0
    2.6072   -1.0731   -0.4050 H   0  0  0  0  0  0  0  0  0  0  0  0
    2.7507    0.3986    0.5535 H   0  0  0  0  0  0  0  0  0  0  0  0
    2.5110    0.4859   -1.2207 H   0  0  0  0  0  0  0  0  0  0  0  0
    0.5873   -2.1757   -0.1863 H   0  0  0  0  0  0  0  0  0  0  0  0
   -3.1212   -0.1140    0.4160 H   0  0  0  0  0  0  0  0  0  0  0  0
  1  2  1  0
  2  3  2  0
  3  4  1  0
  4  5  1  0
  4  6  2  0
  6  7  1  0
  7  8  1  0
  7  9  2  0
  9 10  1  0
  9  2  1  0
  1 11  1  0
  1 12  1  0
  1 13  1  0
  3 14  1  0
  6 15  1  0
M  END
