
     RDKit          3D

 16 17  0  0  0  0  0  0  0  0999 V2000
    4.8238   -1.1098   -0.9282 Br  0  0  0  0  0  0  0  0  0  0  0  0
    3.1151   -0.4418   -0.3939 C   0  0  0  0  0  0  0  0  0  0  0  0
    2.9504    0.6451    0.4218 C   0  0  0  0  0  0  0  0  0  0  0  0
    1.5650    0.9104    0.6484 C   0  0  0  0  0  0  0  0  0  0  0  0
    0.7251    0.0171   -0.0021 C   0  0  0  0  0  0  0  0  0  0  0  0
   -0.7251   -0.0171    0.0021 C   0  0  0  0  0  0  0  0  0  0  0  0
   -1.5650   -0.9105   -0.6482 C   0  0  0  0  0  0  0  0  0  0  0  0
   -2.9504   -0.6452   -0.4217 C   0  0  0  0  0  0  0  0  0  0  0  0
   -3.1151    0.4419    0.3938 C   0  0  0  0  0  0  0  0  0  0  0  0
   -4.8238    1.1100    0.9279 Br  0  0  0  0  0  0  0  0  0  0  0  0
   -1.6553    1.1377    0.8838 S   0  0  0  0  0  0  0  0  0  0  0  0
    1.6553   -1.1375   -0.8840 S   0  0  0  0  0  0  0  0  0  0  0  0
    3.7637    1.2258    0.8392 H   0  0  0  0  0  0  0  0  0  0  0  0
    1.2133    1.7279    1.2666 H   0  0  0  0  0  0  0  0  0  0  0  0
   -1.2133   -1.7282   -1.2663 H   0  0  0  0  0  0  0  0  0  0  0  0
   -3.7637   -1.2259   -0.8390 H   0  0  0  0  0  0  0  0  0  0  0  0
  1  2  1  0
  2  3  2  0
  3  4  1  0
  4  5  2  0
  5  6  1  0
  6  7  2  0
  7  8  1  0
  8  9  2  0
  9 10  1  0
  9 11  1  0
  5 12  1  0
 12  2  1  0
 11  6  1  0
  3 13  1  0
  4 14  1  0
  7 15  1  0
  8 16  1  0
M  END
