
     RDKit          3D

 16 17  0  0  0  0  0  0  0  0999 V2000
    4.9358    1.2989   -0.4373 Br  0  0  0  0  0  0  0  0  0  0  0  0
    3.1693    0.6060   -0.2130 C   0  0  0  0  0  0  0  0  0  0  0  0
    2.9063   -0.6810    0.1723 C   0  0  0  0  0  0  0  0  0  0  0  0
    1.4992   -0.9127    0.2558 C   0  0  0  0  0  0  0  0  0  0  0  0
    0.7409    0.2043   -0.0684 C   0  0  0  0  0  0  0  0  0  0  0  0
   -0.7080    0.2958   -0.0806 C   0  0  0  0  0  0  0  0  0  0  0  0
   -1.6063   -0.7165    0.2296 C   0  0  0  0  0  0  0  0  0  0  0  0
   -2.9714   -0.3096    0.1228 C   0  0  0  0  0  0  0  0  0  0  0  0
   -3.0638    0.9998   -0.2654 C   0  0  0  0  0  0  0  0  0  0  0  0
   -4.7251    1.9094   -0.5186 Br  0  0  0  0  0  0  0  0  0  0  0  0
   -1.5610    1.7350   -0.4995 S   0  0  0  0  0  0  0  0  0  0  0  0
    1.7752    1.5242   -0.4715 S   0  0  0  0  0  0  0  0  0  0  0  0
    3.6663   -1.4227    0.3849 H   0  0  0  0  0  0  0  0  0  0  0  0
    1.0736   -1.8660    0.5436 H   0  0  0  0  0  0  0  0  0  0  0  0
   -1.3089   -1.7155    0.5234 H   0  0  0  0  0  0  0  0  0  0  0  0
   -3.8221   -0.9495    0.3218 H   0  0  0  0  0  0  0  0  0  0  0  0
  1  2  1  0
  2  3  2  0
  3  4  1  0
  4  5  2  0
  5  6  1  0
  6  7  2  0
  7  8  1  0
  8  9  2  0
  9 10  1  0
  9 11  1  0
  5 12  1  0
 12  2  1  0
 11  6  1  0
  3 13  1  0
  4 14  1  0
  7 15  1  0
  8 16  1  0
M  END
