
     RDKit          3D

 30 33  0  0  0  0  0  0  0  0999 V2000
    2.0356   -3.8623    0.3231 Br  0  0  0  0  0  0  0  0  0  0  0  0
    1.4931   -2.0462    0.0800 C   0  0  0  0  0  0  0  0  0  0  0  0
    0.1139   -1.8169    0.0985 C   0  0  0  0  0  0  0  0  0  0  0  0
   -0.4537   -0.5381   -0.0658 C   0  0  0  0  0  0  0  0  0  0  0  0
   -1.8873   -0.3159   -0.0443 C   0  0  0  0  0  0  0  0  0  0  0  0
   -2.8396   -1.3569    0.1424 C   0  0  0  0  0  0  0  0  0  0  0  0
   -4.2188   -1.1359    0.1620 C   0  0  0  0  0  0  0  0  0  0  0  0
   -4.7066    0.1442   -0.0054 C   0  0  0  0  0  0  0  0  0  0  0  0
   -3.8115    1.1937   -0.1911 C   0  0  0  0  0  0  0  0  0  0  0  0
   -2.4059    0.9943   -0.2149 C   0  0  0  0  0  0  0  0  0  0  0  0
   -1.4931    2.0462   -0.4016 C   0  0  0  0  0  0  0  0  0  0  0  0
   -2.0356    3.8623   -0.6447 Br  0  0  0  0  0  0  0  0  0  0  0  0
   -0.1139    1.8169   -0.4200 C   0  0  0  0  0  0  0  0  0  0  0  0
    0.4537    0.5381   -0.2558 C   0  0  0  0  0  0  0  0  0  0  0  0
    1.8873    0.3159   -0.2773 C   0  0  0  0  0  0  0  0  0  0  0  0
    2.8396    1.3569   -0.4640 C   0  0  0  0  0  0  0  0  0  0  0  0
    4.2188    1.1359   -0.4836 C   0  0  0  0  0  0  0  0  0  0  0  0
    4.7066   -0.1442   -0.3162 C   0  0  0  0  0  0  0  0  0  0  0  0
    3.8115   -1.1936   -0.1305 C   0  0  0  0  0  0  0  0  0  0  0  0
    2.4059   -0.9943   -0.1067 C   0  0  0  0  0  0  0  0  0  0  0  0
   -0.5228   -2.6838    0.2480 H   0  0  0  0  0  0  0  0  0  0  0  0
   -2.5263   -2.3878    0.2802 H   0  0  0  0  0  0  0  0  0  0  0  0
   -4.9021   -1.9683    0.3083 H   0  0  0  0  0  0  0  0  0  0  0  0
   -5.7766    0.3329    0.0073 H   0  0  0  0  0  0  0  0  0  0  0  0
   -4.2386    2.1858   -0.3190 H   0  0  0  0  0  0  0  0  0  0  0  0
    0.5228    2.6838   -0.5696 H   0  0  0  0  0  0  0  0  0  0  0  0
    2.5263    2.3878   -0.6017 H   0  0  0  0  0  0  0  0  0  0  0  0
    4.9021    1.9683   -0.6299 H   0  0  0  0  0  0  0  0  0  0  0  0
    5.7766   -0.3329   -0.3289 H   0  0  0  0  0  0  0  0  0  0  0  0
    4.2386   -2.1858   -0.0026 H   0  0  0  0  0  0  0  0  0  0  0  0
  1  2  1  0
  2  3  2  0
  3  4  1  0
  4  5  2  0
  5  6  1  0
  6  7  2  0
  7  8  1  0
  8  9  2  0
  9 10  1  0
 10 11  2  0
 11 12  1  0
 11 13  1  0
 13 14  2  0
 14 15  1  0
 15 16  2  0
 16 17  1  0
 17 18  2  0
 18 19  1  0
 19 20  2  0
 20  2  1  0
 14  4  1  0
 20 15  1  0
 10  5  1  0
  3 21  1  0
  6 22  1  0
  7 23  1  0
  8 24  1  0
  9 25  1  0
 13 26  1  0
 16 27  1  0
 17 28  1  0
 18 29  1  0
 19 30  1  0
M  END
