
     RDKit          3D

 30 33  0  0  0  0  0  0  0  0999 V2000
    2.0367    3.8715   -0.4441 Br  0  0  0  0  0  0  0  0  0  0  0  0
    1.4940    2.0488   -0.2565 C   0  0  0  0  0  0  0  0  0  0  0  0
    0.1139    1.8257   -0.2334 C   0  0  0  0  0  0  0  0  0  0  0  0
   -0.4541    0.5432   -0.1014 C   0  0  0  0  0  0  0  0  0  0  0  0
   -1.8886    0.3275   -0.0791 C   0  0  0  0  0  0  0  0  0  0  0  0
   -2.8417    1.3789   -0.1872 C   0  0  0  0  0  0  0  0  0  0  0  0
   -4.2217    1.1640   -0.1650 C   0  0  0  0  0  0  0  0  0  0  0  0
   -4.7099   -0.1201   -0.0328 C   0  0  0  0  0  0  0  0  0  0  0  0
   -3.8141   -1.1797    0.0761 C   0  0  0  0  0  0  0  0  0  0  0  0
   -2.4075   -0.9868    0.0561 C   0  0  0  0  0  0  0  0  0  0  0  0
   -1.4940   -2.0488    0.1653 C   0  0  0  0  0  0  0  0  0  0  0  0
   -2.0367   -3.8715    0.3529 Br  0  0  0  0  0  0  0  0  0  0  0  0
   -0.1139   -1.8257    0.1423 C   0  0  0  0  0  0  0  0  0  0  0  0
    0.4541   -0.5433    0.0103 C   0  0  0  0  0  0  0  0  0  0  0  0
    1.8886   -0.3275   -0.0120 C   0  0  0  0  0  0  0  0  0  0  0  0
    2.8417   -1.3789    0.0960 C   0  0  0  0  0  0  0  0  0  0  0  0
    4.2217   -1.1640    0.0738 C   0  0  0  0  0  0  0  0  0  0  0  0
    4.7099    0.1201   -0.0583 C   0  0  0  0  0  0  0  0  0  0  0  0
    3.8141    1.1797   -0.1673 C   0  0  0  0  0  0  0  0  0  0  0  0
    2.4075    0.9868   -0.1473 C   0  0  0  0  0  0  0  0  0  0  0  0
   -0.5233    2.7004   -0.3234 H   0  0  0  0  0  0  0  0  0  0  0  0
   -2.5282    2.4135   -0.2937 H   0  0  0  0  0  0  0  0  0  0  0  0
   -4.9056    2.0044   -0.2514 H   0  0  0  0  0  0  0  0  0  0  0  0
   -5.7805   -0.3040   -0.0138 H   0  0  0  0  0  0  0  0  0  0  0  0
   -4.2414   -2.1747    0.1785 H   0  0  0  0  0  0  0  0  0  0  0  0
    0.5233   -2.7004    0.2322 H   0  0  0  0  0  0  0  0  0  0  0  0
    2.5282   -2.4135    0.2025 H   0  0  0  0  0  0  0  0  0  0  0  0
    4.9056   -2.0044    0.1602 H   0  0  0  0  0  0  0  0  0  0  0  0
    5.7805    0.3040   -0.0774 H   0  0  0  0  0  0  0  0  0  0  0  0
    4.2414    2.1747   -0.2697 H   0  0  0  0  0  0  0  0  0  0  0  0
  1  2  1  0
  2  3  2  0
  3  4  1  0
  4  5  2  0
  5  6  1  0
  6  7  2  0
  7  8  1  0
  8  9  2  0
  9 10  1  0
 10 11  2  0
 11 12  1  0
 11 13  1  0
 13 14  2  0
 14 15  1  0
 15 16  2  0
 16 17  1  0
 17 18  2  0
 18 19  1  0
 19 20  2  0
 20  2  1  0
 14  4  1  0
 20 15  1  0
 10  5  1  0
  3 21  1  0
  6 22  1  0
  7 23  1  0
  8 24  1  0
  9 25  1  0
 13 26  1  0
 16 27  1  0
 17 28  1  0
 18 29  1  0
 19 30  1  0
M  END
