
     RDKit          3D

 20 21  0  0  0  0  0  0  0  0999 V2000
   -3.8060   -2.6139    0.8739 N   0  0  0  0  0  0  0  0  0  0  0  0
   -2.9481   -1.8630    0.6624 C   0  0  0  0  0  0  0  0  0  0  0  0
   -1.8665   -0.9571    0.3997 C   0  0  0  0  0  0  0  0  0  0  0  0
   -0.5748   -1.4809    0.2350 C   0  0  0  0  0  0  0  0  0  0  0  0
    0.5204   -0.6403   -0.0239 C   0  0  0  0  0  0  0  0  0  0  0  0
    1.8155   -1.1569   -0.1898 C   0  0  0  0  0  0  0  0  0  0  0  0
    2.9003   -0.3102   -0.4476 C   0  0  0  0  0  0  0  0  0  0  0  0
    4.6040   -1.1241   -0.6534 Br  0  0  0  0  0  0  0  0  0  0  0  0
    2.6968    1.0681   -0.5421 C   0  0  0  0  0  0  0  0  0  0  0  0
    4.0982    2.3025   -0.8882 Br  0  0  0  0  0  0  0  0  0  0  0  0
    1.4095    1.5937   -0.3783 C   0  0  0  0  0  0  0  0  0  0  0  0
    0.3147    0.7533   -0.1194 C   0  0  0  0  0  0  0  0  0  0  0  0
   -0.9809    1.2703    0.0465 C   0  0  0  0  0  0  0  0  0  0  0  0
   -2.0703    0.4240    0.3050 C   0  0  0  0  0  0  0  0  0  0  0  0
   -3.3717    1.0072    0.4657 C   0  0  0  0  0  0  0  0  0  0  0  0
   -4.4134    1.5008    0.5919 N   0  0  0  0  0  0  0  0  0  0  0  0
   -0.4224   -2.5586    0.3100 H   0  0  0  0  0  0  0  0  0  0  0  0
    1.9822   -2.2309   -0.1175 H   0  0  0  0  0  0  0  0  0  0  0  0
    1.2588    2.6698   -0.4534 H   0  0  0  0  0  0  0  0  0  0  0  0
   -1.1463    2.3461   -0.0262 H   0  0  0  0  0  0  0  0  0  0  0  0
  1  2  3  0
  2  3  1  0
  3  4  2  0
  4  5  1  0
  5  6  2  0
  6  7  1  0
  7  8  1  0
  7  9  2  0
  9 10  1  0
  9 11  1  0
 11 12  2  0
 12 13  1  0
 13 14  2  0
 14 15  1  0
 15 16  3  0
 14  3  1  0
 12  5  1  0
  4 17  1  0
  6 18  1  0
 11 19  1  0
 13 20  1  0
M  END
