
     RDKit          3D

 19 20  0  0  0  0  0  0  0  0999 V2000
   -1.3811   -2.3803   -0.5803 O   0  0  0  0  0  0  0  0  0  0  0  0
   -1.2352   -1.2333   -0.1720 C   0  0  0  0  0  0  0  0  0  0  0  0
   -2.3685   -0.4273    0.3949 C   0  0  0  0  0  0  0  0  0  0  0  0
   -2.0862    1.0355    0.1322 C   0  0  0  0  0  0  0  0  0  0  0  0
   -0.8594    1.4427    0.7437 O   0  0  0  0  0  0  0  0  0  0  0  0
    0.2215    0.7125    0.3178 C   0  0  0  0  0  0  0  0  0  0  0  0
    1.4947    1.2883    0.3970 C   0  0  0  0  0  0  0  0  0  0  0  0
    1.7436    3.0510    1.0555 Br  0  0  0  0  0  0  0  0  0  0  0  0
    2.6223    0.5770   -0.0236 C   0  0  0  0  0  0  0  0  0  0  0  0
    2.4766   -0.7195   -0.5156 C   0  0  0  0  0  0  0  0  0  0  0  0
    4.0017   -1.6806   -1.0841 Br  0  0  0  0  0  0  0  0  0  0  0  0
    1.2204   -1.3158   -0.5840 C   0  0  0  0  0  0  0  0  0  0  0  0
    0.0984   -0.5968   -0.1589 C   0  0  0  0  0  0  0  0  0  0  0  0
   -3.3029   -0.7228   -0.0918 H   0  0  0  0  0  0  0  0  0  0  0  0
   -2.4310   -0.6377    1.4677 H   0  0  0  0  0  0  0  0  0  0  0  0
   -2.0479    1.2602   -0.9420 H   0  0  0  0  0  0  0  0  0  0  0  0
   -2.8845    1.6490    0.5630 H   0  0  0  0  0  0  0  0  0  0  0  0
    3.6086    1.0316    0.0328 H   0  0  0  0  0  0  0  0  0  0  0  0
    1.1089   -2.3338   -0.9524 H   0  0  0  0  0  0  0  0  0  0  0  0
  1  2  2  0
  2  3  1  0
  3  4  1  0
  4  5  1  0
  5  6  1  0
  6  7  2  0
  7  8  1  0
  7  9  1  0
  9 10  2  0
 10 11  1  0
 10 12  1  0
 12 13  2  0
 13  2  1  0
 13  6  1  0
  3 14  1  0
  3 15  1  0
  4 16  1  0
  4 17  1  0
  9 18  1  0
 12 19  1  0
M  END
