
     RDKit          3D

 21 22  0  0  0  0  0  0  0  0999 V2000
    4.1464   -1.9537   -0.4909 Br  0  0  0  0  0  0  0  0  0  0  0  0
    2.6153   -0.8862   -0.1898 C   0  0  0  0  0  0  0  0  0  0  0  0
    2.7642    0.4287    0.2363 C   0  0  0  0  0  0  0  0  0  0  0  0
    1.6273    1.2114    0.4516 C   0  0  0  0  0  0  0  0  0  0  0  0
    1.8858    3.0047    1.0346 Br  0  0  0  0  0  0  0  0  0  0  0  0
    0.3313    0.7029    0.2272 C   0  0  0  0  0  0  0  0  0  0  0  0
    0.2020   -0.6443   -0.1677 C   0  0  0  0  0  0  0  0  0  0  0  0
    1.3472   -1.4254   -0.3937 C   0  0  0  0  0  0  0  0  0  0  0  0
   -1.1575   -1.2510   -0.4157 C   0  0  0  0  0  0  0  0  0  0  0  0
   -2.2761   -0.4422    0.2300 C   0  0  0  0  0  0  0  0  0  0  0  0
   -2.0654    1.0355   -0.0561 C   0  0  0  0  0  0  0  0  0  0  0  0
   -0.8075    1.4731    0.5280 N   0  0  0  0  0  0  0  0  0  0  0  0
    3.7547    0.8420    0.4031 H   0  0  0  0  0  0  0  0  0  0  0  0
    1.2408   -2.4567   -0.7230 H   0  0  0  0  0  0  0  0  0  0  0  0
   -1.3179   -1.2975   -1.5000 H   0  0  0  0  0  0  0  0  0  0  0  0
   -1.1898   -2.2765   -0.0292 H   0  0  0  0  0  0  0  0  0  0  0  0
   -2.2769   -0.6126    1.3145 H   0  0  0  0  0  0  0  0  0  0  0  0
   -3.2473   -0.7745   -0.1524 H   0  0  0  0  0  0  0  0  0  0  0  0
   -2.0732    1.2351   -1.1347 H   0  0  0  0  0  0  0  0  0  0  0  0
   -2.8803    1.6160    0.3891 H   0  0  0  0  0  0  0  0  0  0  0  0
   -0.6232    2.4711    0.4389 H   0  0  0  0  0  0  0  0  0  0  0  0
  1  2  1  0
  2  3  2  0
  3  4  1  0
  4  5  1  0
  4  6  2  0
  6  7  1  0
  7  8  2  0
  7  9  1  0
  9 10  1  0
 10 11  1  0
 11 12  1  0
  8  2  1  0
 12  6  1  0
  3 13  1  0
  8 14  1  0
  9 15  1  0
  9 16  1  0
 10 17  1  0
 10 18  1  0
 11 19  1  0
 11 20  1  0
 12 21  1  0
M  END
