
     RDKit          3D

 13 14  0  0  0  0  0  0  0  0999 V2000
   -3.6953   -0.9064    0.4059 Br  0  0  0  0  0  0  0  0  0  0  0  0
   -1.9293   -0.3217    0.2422 C   0  0  0  0  0  0  0  0  0  0  0  0
   -0.9440   -1.1746   -0.0847 C   0  0  0  0  0  0  0  0  0  0  0  0
    0.3421   -0.6860   -0.1914 N   0  0  0  0  0  0  0  0  0  0  0  0
    1.5004   -1.3085   -0.4997 N   0  0  0  0  0  0  0  0  0  0  0  0
    2.3823   -0.3060   -0.4395 C   0  0  0  0  0  0  0  0  0  0  0  0
    1.8691    0.9169   -0.1137 N   0  0  0  0  0  0  0  0  0  0  0  0
    0.5929    0.6442    0.0345 C   0  0  0  0  0  0  0  0  0  0  0  0
   -0.5143    1.4836    0.3780 C   0  0  0  0  0  0  0  0  0  0  0  0
   -0.2257    3.3340    0.7017 Br  0  0  0  0  0  0  0  0  0  0  0  0
   -1.7308    1.0271    0.4800 N   0  0  0  0  0  0  0  0  0  0  0  0
   -1.0815   -2.2303   -0.2737 H   0  0  0  0  0  0  0  0  0  0  0  0
    3.4342   -0.4720   -0.6398 H   0  0  0  0  0  0  0  0  0  0  0  0
  1  2  1  0
  2  3  2  0
  3  4  1  0
  4  5  1  0
  5  6  2  0
  6  7  1  0
  7  8  2  0
  8  9  1  0
  9 10  1  0
  9 11  2  0
 11  2  1  0
  8  4  1  0
  3 12  1  0
  6 13  1  0
M  END
