
     RDKit          3D

 20 21  0  0  0  0  0  0  0  0999 V2000
    3.7356    2.3643   -1.4204 Br  0  0  0  0  0  0  0  0  0  0  0  0
    2.4167    1.1760   -0.7530 C   0  0  0  0  0  0  0  0  0  0  0  0
    2.8194   -0.0247   -0.2022 C   0  0  0  0  0  0  0  0  0  0  0  0
    1.8325   -0.8769    0.2852 C   0  0  0  0  0  0  0  0  0  0  0  0
    2.3836   -2.5330    1.0410 Br  0  0  0  0  0  0  0  0  0  0  0  0
    0.4773   -0.5214    0.2368 C   0  0  0  0  0  0  0  0  0  0  0  0
    0.1842    0.7056   -0.3765 C   0  0  0  0  0  0  0  0  0  0  0  0
    1.1278    1.5602   -0.8468 N   0  0  0  0  0  0  0  0  0  0  0  0
   -1.2445    1.1753   -0.4811 C   0  0  0  0  0  0  0  0  0  0  0  0
   -2.2390    0.0287   -0.3398 C   0  0  0  0  0  0  0  0  0  0  0  0
   -1.8548   -0.8372    0.8514 C   0  0  0  0  0  0  0  0  0  0  0  0
   -0.5334   -1.4113    0.6398 N   0  0  0  0  0  0  0  0  0  0  0  0
    3.8681   -0.2939   -0.1558 H   0  0  0  0  0  0  0  0  0  0  0  0
   -1.4169    1.9123    0.3128 H   0  0  0  0  0  0  0  0  0  0  0  0
   -1.4008    1.6809   -1.4409 H   0  0  0  0  0  0  0  0  0  0  0  0
   -2.2361   -0.5784   -1.2545 H   0  0  0  0  0  0  0  0  0  0  0  0
   -3.2524    0.4255   -0.2151 H   0  0  0  0  0  0  0  0  0  0  0  0
   -1.8693   -0.2561    1.7815 H   0  0  0  0  0  0  0  0  0  0  0  0
   -2.5781   -1.6518    0.9634 H   0  0  0  0  0  0  0  0  0  0  0  0
   -0.2200   -2.0443    1.3742 H   0  0  0  0  0  0  0  0  0  0  0  0
  1  2  1  0
  2  3  2  0
  3  4  1  0
  4  5  1  0
  4  6  2  0
  6  7  1  0
  7  8  2  0
  7  9  1  0
  9 10  1  0
 10 11  1  0
 11 12  1  0
  8  2  1  0
 12  6  1  0
  3 13  1  0
  9 14  1  0
  9 15  1  0
 10 16  1  0
 10 17  1  0
 11 18  1  0
 11 19  1  0
 12 20  1  0
M  END
