
     RDKit          3D

 30 32  0  0  0  0  0  0  0  0999 V2000
   -1.9088    3.4940   -0.7107 O   0  0  0  0  0  0  0  0  0  0  0  0
   -2.2105    2.3465   -0.9768 C   0  0  0  0  0  0  0  0  0  0  0  0
   -3.2090    2.0536   -1.8251 O   0  0  0  0  0  0  0  0  0  0  0  0
   -1.4801    1.1415   -0.5340 C   0  0  0  0  0  0  0  0  0  0  0  0
   -0.0883    1.2400   -0.5965 C   0  0  0  0  0  0  0  0  0  0  0  0
    0.6714    0.1484   -0.2278 C   0  0  0  0  0  0  0  0  0  0  0  0
    2.1505    0.1294   -0.2650 C   0  0  0  0  0  0  0  0  0  0  0  0
    2.8941    0.9332   -1.1501 C   0  0  0  0  0  0  0  0  0  0  0  0
    4.2934    0.9020   -1.1648 C   0  0  0  0  0  0  0  0  0  0  0  0
    4.9832    0.0617   -0.2966 C   0  0  0  0  0  0  0  0  0  0  0  0
    4.2757   -0.7510    0.5824 C   0  0  0  0  0  0  0  0  0  0  0  0
    2.8779   -0.7174    0.5944 C   0  0  0  0  0  0  0  0  0  0  0  0
    0.0795   -0.9897    0.2058 N   0  0  0  0  0  0  0  0  0  0  0  0
   -1.2644   -1.0970    0.2988 C   0  0  0  0  0  0  0  0  0  0  0  0
   -1.8546   -2.2805    0.7700 C   0  0  0  0  0  0  0  0  0  0  0  0
   -0.7735   -3.7712    1.2706 Br  0  0  0  0  0  0  0  0  0  0  0  0
   -3.2375   -2.4325    0.9046 C   0  0  0  0  0  0  0  0  0  0  0  0
   -4.0643   -1.3762    0.5677 C   0  0  0  0  0  0  0  0  0  0  0  0
   -5.9363   -1.5463    0.7536 Br  0  0  0  0  0  0  0  0  0  0  0  0
   -3.5172   -0.1871    0.0949 C   0  0  0  0  0  0  0  0  0  0  0  0
   -2.1139   -0.0318   -0.0604 C   0  0  0  0  0  0  0  0  0  0  0  0
   -3.5566    2.9273   -2.1047 H   0  0  0  0  0  0  0  0  0  0  0  0
    0.3758    2.1653   -0.9231 H   0  0  0  0  0  0  0  0  0  0  0  0
    2.3960    1.5886   -1.8605 H   0  0  0  0  0  0  0  0  0  0  0  0
    4.8425    1.5316   -1.8604 H   0  0  0  0  0  0  0  0  0  0  0  0
    6.0695    0.0354   -0.3091 H   0  0  0  0  0  0  0  0  0  0  0  0
    4.8059   -1.4156    1.2595 H   0  0  0  0  0  0  0  0  0  0  0  0
    2.3482   -1.3666    1.2910 H   0  0  0  0  0  0  0  0  0  0  0  0
   -3.6560   -3.3647    1.2744 H   0  0  0  0  0  0  0  0  0  0  0  0
   -4.1929    0.6290   -0.1515 H   0  0  0  0  0  0  0  0  0  0  0  0
  1  2  2  0
  2  3  1  0
  2  4  1  0
  4  5  2  0
  5  6  1  0
  6  7  1  0
  7  8  2  0
  8  9  1  0
  9 10  2  0
 10 11  1  0
 11 12  2  0
  6 13  2  0
 13 14  1  0
 14 15  2  0
 15 16  1  0
 15 17  1  0
 17 18  2  0
 18 19  1  0
 18 20  1  0
 20 21  2  0
 21  4  1  0
 12  7  1  0
 21 14  1  0
  3 22  1  0
  5 23  1  0
  8 24  1  0
  9 25  1  0
 10 26  1  0
 11 27  1  0
 12 28  1  0
 17 29  1  0
 20 30  1  0
M  END
