
     RDKit          3D

 14 15  0  0  0  0  0  0  0  0999 V2000
   -2.9688   -2.0809   -1.3485 Br  0  0  0  0  0  0  0  0  0  0  0  0
   -1.5836   -0.9687   -0.6455 C   0  0  0  0  0  0  0  0  0  0  0  0
   -2.0071    0.3011   -0.0192 C   0  0  0  0  0  0  0  0  0  0  0  0
   -1.0376    1.0824    0.4744 C   0  0  0  0  0  0  0  0  0  0  0  0
   -1.4157    2.7142    1.2938 Br  0  0  0  0  0  0  0  0  0  0  0  0
    0.3146    0.6668    0.3761 C   0  0  0  0  0  0  0  0  0  0  0  0
    1.4495    1.2187    0.7644 N   0  0  0  0  0  0  0  0  0  0  0  0
    2.4325    0.3383    0.3907 C   0  0  0  0  0  0  0  0  0  0  0  0
    1.8942   -0.7616   -0.2314 C   0  0  0  0  0  0  0  0  0  0  0  0
    0.5435   -0.5527   -0.2410 N   0  0  0  0  0  0  0  0  0  0  0  0
   -0.3736   -1.4056   -0.7674 N   0  0  0  0  0  0  0  0  0  0  0  0
   -3.0575    0.5550    0.0211 H   0  0  0  0  0  0  0  0  0  0  0  0
    3.4767    0.5440    0.5901 H   0  0  0  0  0  0  0  0  0  0  0  0
    2.3331   -1.6510   -0.6576 H   0  0  0  0  0  0  0  0  0  0  0  0
  1  2  1  0
  2  3  1  0
  3  4  2  0
  4  5  1  0
  4  6  1  0
  6  7  2  0
  7  8  1  0
  8  9  2  0
  9 10  1  0
 10 11  1  0
 11  2  2  0
 10  6  1  0
  3 12  1  0
  8 13  1  0
  9 14  1  0
M  END
