
     RDKit          3D

 30 32  0  0  0  0  0  0  0  0999 V2000
   -1.7196   -3.5740    0.6837 O   0  0  0  0  0  0  0  0  0  0  0  0
   -2.1073   -2.5644    0.1275 C   0  0  0  0  0  0  0  0  0  0  0  0
   -3.1723   -2.5675   -0.6898 O   0  0  0  0  0  0  0  0  0  0  0  0
   -1.4263   -1.2543    0.1570 C   0  0  0  0  0  0  0  0  0  0  0  0
   -0.0378   -1.3098    0.0203 C   0  0  0  0  0  0  0  0  0  0  0  0
    0.6757   -0.1287    0.0138 C   0  0  0  0  0  0  0  0  0  0  0  0
    2.1461   -0.0640   -0.1309 C   0  0  0  0  0  0  0  0  0  0  0  0
    2.9915   -1.1040    0.3001 C   0  0  0  0  0  0  0  0  0  0  0  0
    4.3807   -1.0249    0.1496 C   0  0  0  0  0  0  0  0  0  0  0  0
    4.9579    0.0996   -0.4320 C   0  0  0  0  0  0  0  0  0  0  0  0
    4.1485    1.1473   -0.8579 C   0  0  0  0  0  0  0  0  0  0  0  0
    2.7610    1.0652   -0.7058 C   0  0  0  0  0  0  0  0  0  0  0  0
    0.0420    1.0624    0.1282 N   0  0  0  0  0  0  0  0  0  0  0  0
   -1.2979    1.1369    0.2878 C   0  0  0  0  0  0  0  0  0  0  0  0
   -1.9309    2.3815    0.4335 C   0  0  0  0  0  0  0  0  0  0  0  0
   -0.9175    3.9976    0.3808 Br  0  0  0  0  0  0  0  0  0  0  0  0
   -3.3095    2.5089    0.6260 C   0  0  0  0  0  0  0  0  0  0  0  0
   -4.0877    1.3669    0.6809 C   0  0  0  0  0  0  0  0  0  0  0  0
   -5.9513    1.5066    0.9553 Br  0  0  0  0  0  0  0  0  0  0  0  0
   -3.4979    0.1148    0.5351 C   0  0  0  0  0  0  0  0  0  0  0  0
   -2.1001   -0.0210    0.3222 C   0  0  0  0  0  0  0  0  0  0  0  0
   -3.4808   -3.4988   -0.6867 H   0  0  0  0  0  0  0  0  0  0  0  0
    0.4581   -2.2677   -0.1029 H   0  0  0  0  0  0  0  0  0  0  0  0
    2.5837   -1.9903    0.7810 H   0  0  0  0  0  0  0  0  0  0  0  0
    5.0107   -1.8411    0.4944 H   0  0  0  0  0  0  0  0  0  0  0  0
    6.0367    0.1629   -0.5464 H   0  0  0  0  0  0  0  0  0  0  0  0
    4.5914    2.0329   -1.3060 H   0  0  0  0  0  0  0  0  0  0  0  0
    2.1496    1.9013   -1.0441 H   0  0  0  0  0  0  0  0  0  0  0  0
   -3.7619    3.4908    0.7370 H   0  0  0  0  0  0  0  0  0  0  0  0
   -4.1349   -0.7652    0.5912 H   0  0  0  0  0  0  0  0  0  0  0  0
  1  2  2  0
  2  3  1  0
  2  4  1  0
  4  5  2  0
  5  6  1  0
  6  7  1  0
  7  8  2  0
  8  9  1  0
  9 10  2  0
 10 11  1  0
 11 12  2  0
  6 13  2  0
 13 14  1  0
 14 15  2  0
 15 16  1  0
 15 17  1  0
 17 18  2  0
 18 19  1  0
 18 20  1  0
 20 21  2  0
 21  4  1  0
 12  7  1  0
 21 14  1  0
  3 22  1  0
  5 23  1  0
  8 24  1  0
  9 25  1  0
 10 26  1  0
 11 27  1  0
 12 28  1  0
 17 29  1  0
 20 30  1  0
M  END
