
     RDKit          3D

 13 14  0  0  0  0  0  0  0  0999 V2000
    3.7430   -0.7748   -0.1782 Br  0  0  0  0  0  0  0  0  0  0  0  0
    1.9531   -0.2502   -0.0854 C   0  0  0  0  0  0  0  0  0  0  0  0
    0.9630   -1.1585   -0.0930 C   0  0  0  0  0  0  0  0  0  0  0  0
   -0.3409   -0.7125   -0.0223 N   0  0  0  0  0  0  0  0  0  0  0  0
   -1.5075   -1.3929   -0.0121 N   0  0  0  0  0  0  0  0  0  0  0  0
   -2.4065   -0.4073    0.0700 C   0  0  0  0  0  0  0  0  0  0  0  0
   -1.8965    0.8588    0.1132 N   0  0  0  0  0  0  0  0  0  0  0  0
   -0.6042    0.6323    0.0537 C   0  0  0  0  0  0  0  0  0  0  0  0
    0.5093    1.5317    0.0563 C   0  0  0  0  0  0  0  0  0  0  0  0
    0.2040    3.4046    0.1598 Br  0  0  0  0  0  0  0  0  0  0  0  0
    1.7426    1.1155   -0.0104 N   0  0  0  0  0  0  0  0  0  0  0  0
    1.1097   -2.2281   -0.1511 H   0  0  0  0  0  0  0  0  0  0  0  0
   -3.4689   -0.6186    0.0994 H   0  0  0  0  0  0  0  0  0  0  0  0
  1  2  1  0
  2  3  2  0
  3  4  1  0
  4  5  1  0
  5  6  2  0
  6  7  1  0
  7  8  2  0
  8  9  1  0
  9 10  1  0
  9 11  2  0
 11  2  1  0
  8  4  1  0
  3 12  1  0
  6 13  1  0
M  END
