
     RDKit          3D

 17 18  0  0  0  0  0  0  0  0999 V2000
   -3.0752    0.1442    0.1792 C   0  0  0  0  0  0  0  0  0  0  0  0
   -1.5993    0.0708    0.0943 C   0  0  0  0  0  0  0  0  0  0  0  0
   -0.7671   -1.0107    0.3182 C   0  0  0  0  0  0  0  0  0  0  0  0
    0.4988   -0.5411    0.1062 N   0  0  0  0  0  0  0  0  0  0  0  0
    1.7369   -1.1459    0.1770 C   0  0  0  0  0  0  0  0  0  0  0  0
    2.8245   -0.4006   -0.0945 C   0  0  0  0  0  0  0  0  0  0  0  0
    4.5386   -1.1402   -0.0222 Br  0  0  0  0  0  0  0  0  0  0  0  0
    2.7760    0.9396   -0.4414 N   0  0  0  0  0  0  0  0  0  0  0  0
    1.6003    1.5023   -0.5055 C   0  0  0  0  0  0  0  0  0  0  0  0
    1.5166    3.3411   -0.9801 Br  0  0  0  0  0  0  0  0  0  0  0  0
    0.3872    0.7814   -0.2315 C   0  0  0  0  0  0  0  0  0  0  0  0
   -0.8642    1.1861   -0.2490 N   0  0  0  0  0  0  0  0  0  0  0  0
   -3.3756    0.8849    0.9266 H   0  0  0  0  0  0  0  0  0  0  0  0
   -3.4965    0.4370   -0.7873 H   0  0  0  0  0  0  0  0  0  0  0  0
   -3.5057   -0.8215    0.4619 H   0  0  0  0  0  0  0  0  0  0  0  0
   -0.9685   -2.0345    0.6000 H   0  0  0  0  0  0  0  0  0  0  0  0
    1.7731   -2.1928    0.4480 H   0  0  0  0  0  0  0  0  0  0  0  0
  1  2  1  0
  2  3  2  0
  3  4  1  0
  4  5  1  0
  5  6  2  0
  6  7  1  0
  6  8  1  0
  8  9  2  0
  9 10  1  0
  9 11  1  0
 11 12  2  0
 12  2  1  0
 11  4  1  0
  1 13  1  0
  1 14  1  0
  1 15  1  0
  3 16  1  0
  5 17  1  0
M  END
