
     RDKit          3D

 18 18  0  0  0  0  0  0  0  0999 V2000
    2.6588   -0.3243    1.1516 C   0  0  0  0  0  0  0  0  0  0  0  0
    2.1944   -0.3753   -0.2004 O   0  0  0  0  0  0  0  0  0  0  0  0
    0.8824    0.0242   -0.2789 C   0  0  0  0  0  0  0  0  0  0  0  0
    0.5732    1.3693   -0.5162 C   0  0  0  0  0  0  0  0  0  0  0  0
    1.9217    2.6866   -0.7458 Br  0  0  0  0  0  0  0  0  0  0  0  0
   -0.7559    1.7793   -0.6049 C   0  0  0  0  0  0  0  0  0  0  0  0
   -1.7799    0.8381   -0.4891 C   0  0  0  0  0  0  0  0  0  0  0  0
   -3.4144    1.4019   -0.5907 Cl  0  0  0  0  0  0  0  0  0  0  0  0
   -1.5033   -0.5346   -0.3350 C   0  0  0  0  0  0  0  0  0  0  0  0
   -2.5524   -1.4538   -0.1065 N   0  0  0  0  0  0  0  0  0  0  0  0
   -0.1536   -0.9247   -0.2049 C   0  0  0  0  0  0  0  0  0  0  0  0
    0.2613   -2.7792    0.0137 Br  0  0  0  0  0  0  0  0  0  0  0  0
    3.6913   -0.6859    1.1624 H   0  0  0  0  0  0  0  0  0  0  0  0
    2.6550    0.6998    1.5382 H   0  0  0  0  0  0  0  0  0  0  0  0
    2.0669   -0.9709    1.8077 H   0  0  0  0  0  0  0  0  0  0  0  0
   -0.9993    2.8267   -0.7655 H   0  0  0  0  0  0  0  0  0  0  0  0
   -3.4408   -1.1613   -0.5085 H   0  0  0  0  0  0  0  0  0  0  0  0
   -2.3054   -2.4158   -0.3273 H   0  0  0  0  0  0  0  0  0  0  0  0
  1  2  1  0
  2  3  1  0
  3  4  2  0
  4  5  1  0
  4  6  1  0
  6  7  2  0
  7  8  1  0
  7  9  1  0
  9 10  1  0
  9 11  2  0
 11 12  1  0
 11  3  1  0
  1 13  1  0
  1 14  1  0
  1 15  1  0
  6 16  1  0
 10 17  1  0
 10 18  1  0
M  END
