
     RDKit          3D

 22 23  0  0  0  0  0  0  0  0999 V2000
   -2.0079   -1.8973   -0.0783 C   0  0  0  0  0  0  0  0  0  0  0  0
   -1.4755   -0.4883    0.0036 C   0  0  0  0  0  0  0  0  0  0  0  0
   -2.3123    0.6210    0.1661 C   0  0  0  0  0  0  0  0  0  0  0  0
   -4.2027    0.4916    0.3125 Br  0  0  0  0  0  0  0  0  0  0  0  0
   -1.7202    1.8766    0.2320 C   0  0  0  0  0  0  0  0  0  0  0  0
   -2.4621    3.0156    0.3870 O   0  0  0  0  0  0  0  0  0  0  0  0
   -0.3998    2.1007    0.1574 N   0  0  0  0  0  0  0  0  0  0  0  0
    0.4206    1.0678    0.0180 C   0  0  0  0  0  0  0  0  0  0  0  0
    1.7232    1.3463   -0.0403 N   0  0  0  0  0  0  0  0  0  0  0  0
    2.6211    0.3548   -0.1627 C   0  0  0  0  0  0  0  0  0  0  0  0
    3.9495    0.7670   -0.2565 N   0  0  0  0  0  0  0  0  0  0  0  0
    2.2448   -0.9782   -0.2397 C   0  0  0  0  0  0  0  0  0  0  0  0
    3.5039   -2.3819   -0.4054 Br  0  0  0  0  0  0  0  0  0  0  0  0
    0.8912   -1.2851   -0.1826 C   0  0  0  0  0  0  0  0  0  0  0  0
   -0.0669   -0.2575   -0.0562 C   0  0  0  0  0  0  0  0  0  0  0  0
   -3.0920   -1.9536   -0.1910 H   0  0  0  0  0  0  0  0  0  0  0  0
   -1.5939   -2.4100   -0.9534 H   0  0  0  0  0  0  0  0  0  0  0  0
   -1.7400   -2.4500    0.8282 H   0  0  0  0  0  0  0  0  0  0  0  0
   -3.3948    2.7493    0.4242 H   0  0  0  0  0  0  0  0  0  0  0  0
    3.9707    1.7738   -0.1093 H   0  0  0  0  0  0  0  0  0  0  0  0
    4.5538    0.2644    0.3832 H   0  0  0  0  0  0  0  0  0  0  0  0
    0.5892   -2.3270   -0.2367 H   0  0  0  0  0  0  0  0  0  0  0  0
  1  2  1  0
  2  3  2  0
  3  4  1  0
  3  5  1  0
  5  6  1  0
  5  7  2  0
  7  8  1  0
  8  9  2  0
  9 10  1  0
 10 11  1  0
 10 12  2  0
 12 13  1  0
 12 14  1  0
 14 15  2  0
 15  2  1  0
 15  8  1  0
  1 16  1  0
  1 17  1  0
  1 18  1  0
  6 19  1  0
 11 20  1  0
 11 21  1  0
 14 22  1  0
M  END
