
     RDKit          3D

 24 26  0  0  0  0  0  0  0  0999 V2000
    0.1909   -3.2785    0.5260 Br  0  0  0  0  0  0  0  0  0  0  0  0
    0.0798   -1.3703    0.2199 C   0  0  0  0  0  0  0  0  0  0  0  0
   -1.2105   -0.7777    0.0659 C   0  0  0  0  0  0  0  0  0  0  0  0
   -2.4286   -1.5131    0.1247 C   0  0  0  0  0  0  0  0  0  0  0  0
   -3.6799   -0.9181   -0.0278 C   0  0  0  0  0  0  0  0  0  0  0  0
   -3.7591    0.4411   -0.2459 C   0  0  0  0  0  0  0  0  0  0  0  0
   -2.5861    1.1916   -0.3092 C   0  0  0  0  0  0  0  0  0  0  0  0
   -1.2917    0.6172   -0.1579 C   0  0  0  0  0  0  0  0  0  0  0  0
   -0.0798    1.3703   -0.2199 C   0  0  0  0  0  0  0  0  0  0  0  0
   -0.1908    3.2785   -0.5260 Br  0  0  0  0  0  0  0  0  0  0  0  0
    1.2105    0.7777   -0.0659 C   0  0  0  0  0  0  0  0  0  0  0  0
    2.4286    1.5131   -0.1247 C   0  0  0  0  0  0  0  0  0  0  0  0
    3.6799    0.9181    0.0278 C   0  0  0  0  0  0  0  0  0  0  0  0
    3.7590   -0.4411    0.2459 C   0  0  0  0  0  0  0  0  0  0  0  0
    2.5860   -1.1916    0.3092 C   0  0  0  0  0  0  0  0  0  0  0  0
    1.2917   -0.6172    0.1579 C   0  0  0  0  0  0  0  0  0  0  0  0
   -2.4284   -2.5875    0.2942 H   0  0  0  0  0  0  0  0  0  0  0  0
   -4.5823   -1.5213    0.0250 H   0  0  0  0  0  0  0  0  0  0  0  0
   -4.7247    0.9245   -0.3674 H   0  0  0  0  0  0  0  0  0  0  0  0
   -2.7105    2.2580   -0.4833 H   0  0  0  0  0  0  0  0  0  0  0  0
    2.4284    2.5875   -0.2942 H   0  0  0  0  0  0  0  0  0  0  0  0
    4.5823    1.5212   -0.0250 H   0  0  0  0  0  0  0  0  0  0  0  0
    4.7247   -0.9245    0.3674 H   0  0  0  0  0  0  0  0  0  0  0  0
    2.7105   -2.2580    0.4833 H   0  0  0  0  0  0  0  0  0  0  0  0
  1  2  1  0
  2  3  2  0
  3  4  1  0
  4  5  2  0
  5  6  1  0
  6  7  2  0
  7  8  1  0
  8  9  2  0
  9 10  1  0
  9 11  1  0
 11 12  2  0
 12 13  1  0
 13 14  2  0
 14 15  1  0
 15 16  2  0
 16  2  1  0
  8  3  1  0
 16 11  1  0
  4 17  1  0
  5 18  1  0
  6 19  1  0
  7 20  1  0
 12 21  1  0
 13 22  1  0
 14 23  1  0
 15 24  1  0
M  END
