
     RDKit          3D

 24 26  0  0  0  0  0  0  0  0999 V2000
    2.1500    3.4341    0.7225 Br  0  0  0  0  0  0  0  0  0  0  0  0
    0.9767    1.9334    0.4088 C   0  0  0  0  0  0  0  0  0  0  0  0
   -0.4210    2.1142    0.4604 C   0  0  0  0  0  0  0  0  0  0  0  0
   -1.1485    3.8608    0.8441 Br  0  0  0  0  0  0  0  0  0  0  0  0
   -1.3086    1.0283    0.2338 C   0  0  0  0  0  0  0  0  0  0  0  0
   -2.7259    1.1607    0.2751 C   0  0  0  0  0  0  0  0  0  0  0  0
   -3.5917    0.0928    0.0521 C   0  0  0  0  0  0  0  0  0  0  0  0
   -3.0676   -1.1517   -0.2213 C   0  0  0  0  0  0  0  0  0  0  0  0
   -1.6830   -1.3161   -0.2692 C   0  0  0  0  0  0  0  0  0  0  0  0
   -0.7623   -0.2535   -0.0479 C   0  0  0  0  0  0  0  0  0  0  0  0
    0.6673   -0.4385   -0.1007 C   0  0  0  0  0  0  0  0  0  0  0  0
    1.2692   -1.6981   -0.3781 C   0  0  0  0  0  0  0  0  0  0  0  0
    2.6498   -1.8914   -0.4322 C   0  0  0  0  0  0  0  0  0  0  0  0
    3.4914   -0.8235   -0.2091 C   0  0  0  0  0  0  0  0  0  0  0  0
    2.9439    0.4272    0.0660 C   0  0  0  0  0  0  0  0  0  0  0  0
    1.5403    0.6597    0.1287 C   0  0  0  0  0  0  0  0  0  0  0  0
   -3.1961    2.1186    0.4861 H   0  0  0  0  0  0  0  0  0  0  0  0
   -4.6672    0.2421    0.0940 H   0  0  0  0  0  0  0  0  0  0  0  0
   -3.7251   -1.9986   -0.3984 H   0  0  0  0  0  0  0  0  0  0  0  0
   -1.3383   -2.3223   -0.4896 H   0  0  0  0  0  0  0  0  0  0  0  0
    0.6651   -2.5815   -0.5635 H   0  0  0  0  0  0  0  0  0  0  0  0
    3.0559   -2.8759   -0.6484 H   0  0  0  0  0  0  0  0  0  0  0  0
    4.5696   -0.9529   -0.2466 H   0  0  0  0  0  0  0  0  0  0  0  0
    3.6561    1.2321    0.2334 H   0  0  0  0  0  0  0  0  0  0  0  0
  1  2  1  0
  2  3  2  0
  3  4  1  0
  3  5  1  0
  5  6  2  0
  6  7  1  0
  7  8  2  0
  8  9  1  0
  9 10  2  0
 10 11  1  0
 11 12  2  0
 12 13  1  0
 13 14  2  0
 14 15  1  0
 15 16  2  0
 16  2  1  0
 10  5  1  0
 16 11  1  0
  6 17  1  0
  7 18  1  0
  8 19  1  0
  9 20  1  0
 12 21  1  0
 13 22  1  0
 14 23  1  0
 15 24  1  0
M  END
