
     RDKit          3D

 35 38  0  0  0  0  0  0  0  0999 V2000
    4.3822   -0.1047   -1.0638 C   0  0  0  0  0  0  0  0  0  0  0  0
    4.3302    0.5895    0.1424 C   0  0  0  0  0  0  0  0  0  0  0  0
    3.2093    0.4764    0.9670 C   0  0  0  0  0  0  0  0  0  0  0  0
    2.1209   -0.3263    0.5902 C   0  0  0  0  0  0  0  0  0  0  0  0
    2.1938   -1.0301   -0.6219 C   0  0  0  0  0  0  0  0  0  0  0  0
    3.3156   -0.9152   -1.4450 C   0  0  0  0  0  0  0  0  0  0  0  0
    0.9279   -0.4558    1.5072 C   0  0  0  0  0  0  0  0  0  0  0  0
   -0.3402   -0.1765    0.8343 N   0  0  0  0  0  0  0  0  0  0  0  0
   -1.2692   -1.1336    0.4624 C   0  0  0  0  0  0  0  0  0  0  0  0
   -2.3518   -0.4532   -0.1002 C   0  0  0  0  0  0  0  0  0  0  0  0
   -3.4547   -1.1968   -0.5745 C   0  0  0  0  0  0  0  0  0  0  0  0
   -3.4476   -2.5919   -0.4766 C   0  0  0  0  0  0  0  0  0  0  0  0
   -2.3574   -3.2445    0.0858 C   0  0  0  0  0  0  0  0  0  0  0  0
   -1.2510   -2.5372    0.5653 C   0  0  0  0  0  0  0  0  0  0  0  0
   -2.3653   -5.1341    0.2050 Br  0  0  0  0  0  0  0  0  0  0  0  0
   -2.0582    0.9447   -0.0548 C   0  0  0  0  0  0  0  0  0  0  0  0
   -0.8012    1.0940    0.5333 C   0  0  0  0  0  0  0  0  0  0  0  0
   -0.2168    2.3593    0.7239 C   0  0  0  0  0  0  0  0  0  0  0  0
   -0.9362    3.4821    0.3056 C   0  0  0  0  0  0  0  0  0  0  0  0
   -2.1907    3.3626   -0.2807 C   0  0  0  0  0  0  0  0  0  0  0  0
   -2.7607    2.0986   -0.4660 C   0  0  0  0  0  0  0  0  0  0  0  0
   -0.1808    5.2017    0.5441 Br  0  0  0  0  0  0  0  0  0  0  0  0
    5.2538   -0.0150   -1.7068 H   0  0  0  0  0  0  0  0  0  0  0  0
    5.1639    1.2198    0.4414 H   0  0  0  0  0  0  0  0  0  0  0  0
    3.1936    1.0250    1.9065 H   0  0  0  0  0  0  0  0  0  0  0  0
    1.3748   -1.6701   -0.9434 H   0  0  0  0  0  0  0  0  0  0  0  0
    3.3552   -1.4583   -2.3860 H   0  0  0  0  0  0  0  0  0  0  0  0
    0.9927    0.2406    2.3520 H   0  0  0  0  0  0  0  0  0  0  0  0
    0.8963   -1.4631    1.9336 H   0  0  0  0  0  0  0  0  0  0  0  0
   -4.3078   -0.6887   -1.0154 H   0  0  0  0  0  0  0  0  0  0  0  0
   -4.3013   -3.1543   -0.8456 H   0  0  0  0  0  0  0  0  0  0  0  0
   -0.4054   -3.0627    0.9966 H   0  0  0  0  0  0  0  0  0  0  0  0
    0.7649    2.4651    1.1727 H   0  0  0  0  0  0  0  0  0  0  0  0
   -2.7388    4.2444   -0.6019 H   0  0  0  0  0  0  0  0  0  0  0  0
   -3.7405    2.0080   -0.9262 H   0  0  0  0  0  0  0  0  0  0  0  0
  1  2  2  0
  2  3  1  0
  3  4  2  0
  4  5  1  0
  5  6  2  0
  4  7  1  0
  7  8  1  0
  8  9  1  0
  9 10  1  0
 10 11  2  0
 11 12  1  0
 12 13  2  0
 13 14  1  0
 13 15  1  0
 10 16  1  0
 16 17  2  0
 17 18  1  0
 18 19  2  0
 19 20  1  0
 20 21  2  0
 19 22  1  0
  6  1  1  0
 17  8  1  0
 14  9  2  0
 21 16  1  0
  1 23  1  0
  2 24  1  0
  3 25  1  0
  5 26  1  0
  6 27  1  0
  7 28  1  0
  7 29  1  0
 11 30  1  0
 12 31  1  0
 14 32  1  0
 18 33  1  0
 20 34  1  0
 21 35  1  0
M  END
