
     RDKit          3D

 39 39  0  0  0  0  0  0  0  0999 V2000
   -3.6151   -0.8190   -0.4513 C   0  0  0  0  0  0  0  0  0  0  0  0
   -2.3716   -1.2755   -1.2221 C   0  0  0  0  0  0  0  0  0  0  0  0
   -2.8101   -1.7787   -2.6059 C   0  0  0  0  0  0  0  0  0  0  0  0
   -1.6327   -2.4092   -0.5012 C   0  0  0  0  0  0  0  0  0  0  0  0
   -1.4822   -0.1633   -1.5000 O   0  0  0  0  0  0  0  0  0  0  0  0
   -0.8980    0.5164   -0.4890 C   0  0  0  0  0  0  0  0  0  0  0  0
   -1.0633    0.3232    0.7034 O   0  0  0  0  0  0  0  0  0  0  0  0
   -0.0815    1.4638   -1.0172 N   0  0  0  0  0  0  0  0  0  0  0  0
    0.6531    2.4301   -0.2049 C   0  0  1  0  0  0  0  0  0  0  0  0
    2.1120    1.9983    0.0194 C   0  0  0  0  0  0  0  0  0  0  0  0
    2.2579    0.7716    0.8906 C   0  0  0  0  0  0  0  0  0  0  0  0
    2.3764   -0.5016    0.3156 C   0  0  0  0  0  0  0  0  0  0  0  0
    2.4693   -1.6346    1.1272 C   0  0  0  0  0  0  0  0  0  0  0  0
    2.6095   -3.3364    0.3015 Br  0  0  0  0  0  0  0  0  0  0  0  0
    2.4550   -1.5135    2.5193 C   0  0  0  0  0  0  0  0  0  0  0  0
    2.5526   -2.6196    3.3229 O   0  0  0  0  0  0  0  0  0  0  0  0
    2.3404   -0.2481    3.0974 C   0  0  0  0  0  0  0  0  0  0  0  0
    2.3135   -0.0163    4.9802 Br  0  0  0  0  0  0  0  0  0  0  0  0
    2.2395    0.8887    2.2884 C   0  0  0  0  0  0  0  0  0  0  0  0
    0.6588    3.7960   -0.8930 C   0  0  0  0  0  0  0  0  0  0  0  0
    1.1372    4.8259   -0.4441 O   0  0  0  0  0  0  0  0  0  0  0  0
    0.1049    3.7944   -2.1274 O   0  0  0  0  0  0  0  0  0  0  0  0
   -3.3750   -0.5184    0.5729 H   0  0  0  0  0  0  0  0  0  0  0  0
   -4.3615   -1.6184   -0.3902 H   0  0  0  0  0  0  0  0  0  0  0  0
   -4.0745    0.0506   -0.9346 H   0  0  0  0  0  0  0  0  0  0  0  0
   -3.3110   -0.9827   -3.1692 H   0  0  0  0  0  0  0  0  0  0  0  0
   -1.9421   -2.0808   -3.2037 H   0  0  0  0  0  0  0  0  0  0  0  0
   -3.4925   -2.6319   -2.5315 H   0  0  0  0  0  0  0  0  0  0  0  0
   -2.2537   -3.3088   -0.4321 H   0  0  0  0  0  0  0  0  0  0  0  0
   -0.7065   -2.6649   -1.0278 H   0  0  0  0  0  0  0  0  0  0  0  0
   -1.3467   -2.1297    0.5173 H   0  0  0  0  0  0  0  0  0  0  0  0
   -0.1540    1.6199   -2.0152 H   0  0  0  0  0  0  0  0  0  0  0  0
    0.1250    2.5535    0.7481 H   0  0  0  0  0  0  0  0  0  0  0  0
    2.6827    2.8149    0.4821 H   0  0  0  0  0  0  0  0  0  0  0  0
    2.6032    1.8172   -0.9466 H   0  0  0  0  0  0  0  0  0  0  0  0
    2.3782   -0.6084   -0.7670 H   0  0  0  0  0  0  0  0  0  0  0  0
    2.5878   -3.4029    2.7456 H   0  0  0  0  0  0  0  0  0  0  0  0
    2.1381    1.8694    2.7491 H   0  0  0  0  0  0  0  0  0  0  0  0
    0.1767    4.7289   -2.4192 H   0  0  0  0  0  0  0  0  0  0  0  0
  1  2  1  0
  2  3  1  0
  2  4  1  0
  2  5  1  0
  5  6  1  0
  6  7  2  0
  6  8  1  0
  8  9  1  0
  9 10  1  0
 10 11  1  0
 11 12  2  0
 12 13  1  0
 13 14  1  0
 13 15  2  0
 15 16  1  0
 15 17  1  0
 17 18  1  0
 17 19  2  0
  9 20  1  0
 20 21  2  0
 20 22  1  0
 19 11  1  0
  1 23  1  0
  1 24  1  0
  1 25  1  0
  3 26  1  0
  3 27  1  0
  3 28  1  0
  4 29  1  0
  4 30  1  0
  4 31  1  0
  8 32  1  0
  9 33  1  1
 10 34  1  0
 10 35  1  0
 12 36  1  0
 16 37  1  0
 19 38  1  0
 22 39  1  0
M  END
