
     RDKit          3D

 39 39  0  0  0  0  0  0  0  0999 V2000
   -3.5132    1.0174   -1.7589 C   0  0  0  0  0  0  0  0  0  0  0  0
   -3.7567    0.0763   -0.5739 C   0  0  0  0  0  0  0  0  0  0  0  0
   -5.0773    0.4721    0.1039 C   0  0  0  0  0  0  0  0  0  0  0  0
   -3.8528   -1.3882   -1.0157 C   0  0  0  0  0  0  0  0  0  0  0  0
   -2.7478    0.2514    0.4542 O   0  0  0  0  0  0  0  0  0  0  0  0
   -1.4484   -0.0092    0.1961 C   0  0  0  0  0  0  0  0  0  0  0  0
   -0.9801   -0.4047   -0.8590 O   0  0  0  0  0  0  0  0  0  0  0  0
   -0.7196    0.2340    1.3158 N   0  0  0  0  0  0  0  0  0  0  0  0
    0.6971   -0.1081    1.4213 C   0  0  1  0  0  0  0  0  0  0  0  0
    1.5754    0.8917    0.6502 C   0  0  0  0  0  0  0  0  0  0  0  0
    2.7869    0.2391    0.0217 C   0  0  0  0  0  0  0  0  0  0  0  0
    2.6634   -0.4385   -1.2007 C   0  0  0  0  0  0  0  0  0  0  0  0
    3.7759   -1.0513   -1.7815 C   0  0  0  0  0  0  0  0  0  0  0  0
    3.5612   -1.9538   -3.4356 Br  0  0  0  0  0  0  0  0  0  0  0  0
    5.0226   -0.9995   -1.1517 C   0  0  0  0  0  0  0  0  0  0  0  0
    6.1200   -1.5972   -1.7147 O   0  0  0  0  0  0  0  0  0  0  0  0
    5.1498   -0.3312    0.0676 C   0  0  0  0  0  0  0  0  0  0  0  0
    6.8136   -0.2303    0.9740 Br  0  0  0  0  0  0  0  0  0  0  0  0
    4.0378    0.2839    0.6527 C   0  0  0  0  0  0  0  0  0  0  0  0
    1.1106   -0.1362    2.8965 C   0  0  0  0  0  0  0  0  0  0  0  0
    2.2287   -0.3465    3.3381 O   0  0  0  0  0  0  0  0  0  0  0  0
    0.0876    0.0981    3.7534 O   0  0  0  0  0  0  0  0  0  0  0  0
   -3.3611    2.0461   -1.4135 H   0  0  0  0  0  0  0  0  0  0  0  0
   -2.6178    0.7407   -2.3237 H   0  0  0  0  0  0  0  0  0  0  0  0
   -4.3572    1.0054   -2.4571 H   0  0  0  0  0  0  0  0  0  0  0  0
   -5.9286    0.3813   -0.5789 H   0  0  0  0  0  0  0  0  0  0  0  0
   -5.0341    1.5053    0.4679 H   0  0  0  0  0  0  0  0  0  0  0  0
   -5.2688   -0.1566    0.9814 H   0  0  0  0  0  0  0  0  0  0  0  0
   -3.9393   -2.0513   -0.1475 H   0  0  0  0  0  0  0  0  0  0  0  0
   -2.9638   -1.7083   -1.5673 H   0  0  0  0  0  0  0  0  0  0  0  0
   -4.7184   -1.5519   -1.6668 H   0  0  0  0  0  0  0  0  0  0  0  0
   -1.2357    0.4253    2.1676 H   0  0  0  0  0  0  0  0  0  0  0  0
    0.8001   -1.1303    1.0367 H   0  0  0  0  0  0  0  0  0  0  0  0
    1.8977    1.7138    1.3031 H   0  0  0  0  0  0  0  0  0  0  0  0
    1.0085    1.3766   -0.1556 H   0  0  0  0  0  0  0  0  0  0  0  0
    1.6940   -0.4860   -1.6965 H   0  0  0  0  0  0  0  0  0  0  0  0
    5.8371   -2.0095   -2.5506 H   0  0  0  0  0  0  0  0  0  0  0  0
    4.1463    0.7943    1.6083 H   0  0  0  0  0  0  0  0  0  0  0  0
    0.5064    0.0289    4.6389 H   0  0  0  0  0  0  0  0  0  0  0  0
  1  2  1  0
  2  3  1  0
  2  4  1  0
  2  5  1  0
  5  6  1  0
  6  7  2  0
  6  8  1  0
  8  9  1  0
  9 10  1  0
 10 11  1  0
 11 12  2  0
 12 13  1  0
 13 14  1  0
 13 15  2  0
 15 16  1  0
 15 17  1  0
 17 18  1  0
 17 19  2  0
  9 20  1  0
 20 21  2  0
 20 22  1  0
 19 11  1  0
  1 23  1  0
  1 24  1  0
  1 25  1  0
  3 26  1  0
  3 27  1  0
  3 28  1  0
  4 29  1  0
  4 30  1  0
  4 31  1  0
  8 32  1  0
  9 33  1  6
 10 34  1  0
 10 35  1  0
 12 36  1  0
 16 37  1  0
 19 38  1  0
 22 39  1  0
M  END
