
     RDKit          3D

 12 12  0  0  0  0  0  0  0  0999 V2000
   -2.4418   -1.0628   -0.1264 O   0  0  0  0  0  0  0  0  0  0  0  0
   -1.3228   -0.5566   -0.0688 C   0  0  0  0  0  0  0  0  0  0  0  0
   -0.2342   -1.3733    0.0096 N   0  0  0  0  0  0  0  0  0  0  0  0
    1.0638   -0.9624    0.0794 C   0  0  0  0  0  0  0  0  0  0  0  0
    1.9520   -1.8100    0.1465 O   0  0  0  0  0  0  0  0  0  0  0  0
    1.2593    0.4032    0.0677 N   0  0  0  0  0  0  0  0  0  0  0  0
    3.0537    1.0476    0.1629 Br  0  0  0  0  0  0  0  0  0  0  0  0
    0.2278    1.3361   -0.0093 C   0  0  0  0  0  0  0  0  0  0  0  0
    0.4353    2.5528   -0.0178 O   0  0  0  0  0  0  0  0  0  0  0  0
   -1.0547    0.7968   -0.0761 N   0  0  0  0  0  0  0  0  0  0  0  0
   -2.5344    1.9979   -0.1842 Br  0  0  0  0  0  0  0  0  0  0  0  0
   -0.4039   -2.3692    0.0165 H   0  0  0  0  0  0  0  0  0  0  0  0
  1  2  2  0
  2  3  1  0
  3  4  1  0
  4  5  2  0
  4  6  1  0
  6  7  1  0
  6  8  1  0
  8  9  2  0
  8 10  1  0
 10 11  1  0
 10  2  1  0
  3 12  1  0
M  END
