
     RDKit          3D

 24 24  0  0  0  0  0  0  0  0999 V2000
    4.8789   -0.5560    0.3430 C   0  0  0  0  0  0  0  0  0  0  0  0
    3.4863   -0.5551    0.0247 O   0  0  0  0  0  0  0  0  0  0  0  0
    2.7367    0.1998    0.8648 C   0  0  0  0  0  0  0  0  0  0  0  0
    3.1288    0.8597    1.8095 O   0  0  0  0  0  0  0  0  0  0  0  0
    1.3274    0.1009    0.4405 C   0  0  0  0  0  0  0  0  0  0  0  0
    1.0079    0.4557   -0.8804 C   0  0  0  0  0  0  0  0  0  0  0  0
   -0.3181    0.4099   -1.3226 C   0  0  0  0  0  0  0  0  0  0  0  0
   -0.6600    0.9583   -3.1066 Br  0  0  0  0  0  0  0  0  0  0  0  0
   -1.3274    0.0113   -0.4405 C   0  0  0  0  0  0  0  0  0  0  0  0
   -2.7367   -0.0877   -0.8648 C   0  0  0  0  0  0  0  0  0  0  0  0
   -3.1288   -0.7475   -1.8095 O   0  0  0  0  0  0  0  0  0  0  0  0
   -3.4863    0.6672   -0.0247 O   0  0  0  0  0  0  0  0  0  0  0  0
   -4.8789    0.6682   -0.3430 C   0  0  0  0  0  0  0  0  0  0  0  0
   -1.0079   -0.3436    0.8804 C   0  0  0  0  0  0  0  0  0  0  0  0
    0.3181   -0.2977    1.3226 C   0  0  0  0  0  0  0  0  0  0  0  0
    0.6600   -0.8461    3.1066 Br  0  0  0  0  0  0  0  0  0  0  0  0
    5.2905    0.4549    0.2622 H   0  0  0  0  0  0  0  0  0  0  0  0
    5.3911   -1.1976   -0.3794 H   0  0  0  0  0  0  0  0  0  0  0  0
    5.0429   -0.9631    1.3458 H   0  0  0  0  0  0  0  0  0  0  0  0
    1.7989    0.7774   -1.5563 H   0  0  0  0  0  0  0  0  0  0  0  0
   -5.2905   -0.3428   -0.2623 H   0  0  0  0  0  0  0  0  0  0  0  0
   -5.3911    1.3097    0.3794 H   0  0  0  0  0  0  0  0  0  0  0  0
   -5.0429    1.0752   -1.3458 H   0  0  0  0  0  0  0  0  0  0  0  0
   -1.7989   -0.6653    1.5563 H   0  0  0  0  0  0  0  0  0  0  0  0
  1  2  1  0
  2  3  1  0
  3  4  2  0
  3  5  1  0
  5  6  2  0
  6  7  1  0
  7  8  1  0
  7  9  2  0
  9 10  1  0
 10 11  2  0
 10 12  1  0
 12 13  1  0
  9 14  1  0
 14 15  2  0
 15 16  1  0
 15  5  1  0
  1 17  1  0
  1 18  1  0
  1 19  1  0
  6 20  1  0
 13 21  1  0
 13 22  1  0
 13 23  1  0
 14 24  1  0
M  END
