
     RDKit          3D

 24 24  0  0  0  0  0  0  0  0999 V2000
    4.7744   -0.8048    0.1867 C   0  0  0  0  0  0  0  0  0  0  0  0
    3.3691   -0.7395   -0.0591 O   0  0  0  0  0  0  0  0  0  0  0  0
    2.8468    0.5003    0.0864 C   0  0  0  0  0  0  0  0  0  0  0  0
    3.4259    1.5102    0.4465 O   0  0  0  0  0  0  0  0  0  0  0  0
    1.3949    0.4398   -0.1504 C   0  0  0  0  0  0  0  0  0  0  0  0
    0.5678    0.8532    0.9056 C   0  0  0  0  0  0  0  0  0  0  0  0
   -0.8227    0.8225    0.7643 C   0  0  0  0  0  0  0  0  0  0  0  0
   -1.8615    1.4600    2.2190 Br  0  0  0  0  0  0  0  0  0  0  0  0
   -1.3836    0.3753   -0.4369 C   0  0  0  0  0  0  0  0  0  0  0  0
   -2.8356    0.3068   -0.6708 C   0  0  0  0  0  0  0  0  0  0  0  0
   -3.3929    0.8701   -1.5966 O   0  0  0  0  0  0  0  0  0  0  0  0
   -3.3869   -0.5432    0.2262 O   0  0  0  0  0  0  0  0  0  0  0  0
   -4.7955   -0.7154    0.0659 C   0  0  0  0  0  0  0  0  0  0  0  0
   -0.5560    0.0012   -1.5069 C   0  0  0  0  0  0  0  0  0  0  0  0
    0.8345    0.0334   -1.3662 C   0  0  0  0  0  0  0  0  0  0  0  0
    1.8758   -0.4272   -2.8846 Br  0  0  0  0  0  0  0  0  0  0  0  0
    4.9924   -0.5438    1.2270 H   0  0  0  0  0  0  0  0  0  0  0  0
    5.1018   -1.8331    0.0108 H   0  0  0  0  0  0  0  0  0  0  0  0
    5.3158   -0.1464   -0.5001 H   0  0  0  0  0  0  0  0  0  0  0  0
    1.0199    1.2045    1.8325 H   0  0  0  0  0  0  0  0  0  0  0  0
   -5.1465   -1.3879    0.8534 H   0  0  0  0  0  0  0  0  0  0  0  0
   -5.3145    0.2425    0.1714 H   0  0  0  0  0  0  0  0  0  0  0  0
   -5.0162   -1.1714   -0.9043 H   0  0  0  0  0  0  0  0  0  0  0  0
   -1.0074   -0.3072   -2.4493 H   0  0  0  0  0  0  0  0  0  0  0  0
  1  2  1  0
  2  3  1  0
  3  4  2  0
  3  5  1  0
  5  6  2  0
  6  7  1  0
  7  8  1  0
  7  9  2  0
  9 10  1  0
 10 11  2  0
 10 12  1  0
 12 13  1  0
  9 14  1  0
 14 15  2  0
 15 16  1  0
 15  5  1  0
  1 17  1  0
  1 18  1  0
  1 19  1  0
  6 20  1  0
 13 21  1  0
 13 22  1  0
 13 23  1  0
 14 24  1  0
M  END
