
     RDKit          3D

 20 20  0  0  0  0  0  0  0  0999 V2000
    3.2448   -0.7847    0.6236 C   0  0  0  0  0  0  0  0  0  0  0  0
    2.7627    0.0140   -0.5728 C   0  0  0  0  0  0  0  0  0  0  0  0
    1.4543   -0.4291   -0.9684 O   0  0  0  0  0  0  0  0  0  0  0  0
    0.4044    0.1584   -0.3213 C   0  0  0  0  0  0  0  0  0  0  0  0
    0.5104    1.0005    0.5582 O   0  0  0  0  0  0  0  0  0  0  0  0
   -0.8811   -0.4169   -0.8439 C   0  0  0  0  0  0  0  0  0  0  0  0
   -2.0375    0.1792   -0.2134 N   0  0  0  0  0  0  0  0  0  0  0  0
   -2.8635    0.9775   -0.9214 N   0  0  0  0  0  0  0  0  0  0  0  0
   -3.8063    1.2508   -0.0124 C   0  0  0  0  0  0  0  0  0  0  0  0
   -5.2739    2.3725   -0.3887 Br  0  0  0  0  0  0  0  0  0  0  0  0
   -3.6428    0.6359    1.1979 N   0  0  0  0  0  0  0  0  0  0  0  0
   -2.5244   -0.0349    1.0445 C   0  0  0  0  0  0  0  0  0  0  0  0
   -1.7704   -1.1462    2.3960 Br  0  0  0  0  0  0  0  0  0  0  0  0
    2.5927   -0.6296    1.4889 H   0  0  0  0  0  0  0  0  0  0  0  0
    3.2291   -1.8568    0.4015 H   0  0  0  0  0  0  0  0  0  0  0  0
    4.2634   -0.4958    0.8977 H   0  0  0  0  0  0  0  0  0  0  0  0
    3.4292   -0.1586   -1.4241 H   0  0  0  0  0  0  0  0  0  0  0  0
    2.7729    1.0908   -0.3685 H   0  0  0  0  0  0  0  0  0  0  0  0
   -0.9486   -0.2334   -1.9212 H   0  0  0  0  0  0  0  0  0  0  0  0
   -0.9154   -1.4936   -0.6523 H   0  0  0  0  0  0  0  0  0  0  0  0
  1  2  1  0
  2  3  1  0
  3  4  1  0
  4  5  2  0
  4  6  1  0
  6  7  1  0
  7  8  1  0
  8  9  2  0
  9 10  1  0
  9 11  1  0
 11 12  2  0
 12 13  1  0
 12  7  1  0
  1 14  1  0
  1 15  1  0
  1 16  1  0
  2 17  1  0
  2 18  1  0
  6 19  1  0
  6 20  1  0
M  END
