
     RDKit          3D

 17 17  0  0  0  0  0  0  0  0999 V2000
   -2.8073   -0.0569    0.6868 C   0  0  0  0  0  0  0  0  0  0  0  0
   -2.0369    0.8890   -0.2152 C   0  0  0  0  0  0  0  0  0  0  0  0
   -0.6290    0.7659    0.0253 O   0  0  0  0  0  0  0  0  0  0  0  0
    0.0213   -0.2125   -0.6742 C   0  0  0  0  0  0  0  0  0  0  0  0
   -0.5350   -0.9641   -1.4661 O   0  0  0  0  0  0  0  0  0  0  0  0
    1.4533   -0.2523   -0.3586 C   0  0  0  0  0  0  0  0  0  0  0  0
    2.0097    0.6506    0.5647 N   0  0  0  0  0  0  0  0  0  0  0  0
    3.2954    0.4291    0.6867 C   0  0  0  0  0  0  0  0  0  0  0  0
    4.3831    1.4780    1.8676 Br  0  0  0  0  0  0  0  0  0  0  0  0
    3.9441   -0.8316   -0.2534 S   0  0  0  0  0  0  0  0  0  0  0  0
    2.3875   -1.1241   -0.8896 C   0  0  0  0  0  0  0  0  0  0  0  0
    2.0963   -2.5137   -2.1714 Br  0  0  0  0  0  0  0  0  0  0  0  0
   -3.8851    0.0716    0.5533 H   0  0  0  0  0  0  0  0  0  0  0  0
   -2.5571    0.1247    1.7372 H   0  0  0  0  0  0  0  0  0  0  0  0
   -2.5508   -1.0995    0.4742 H   0  0  0  0  0  0  0  0  0  0  0  0
   -2.3117    1.9231    0.0170 H   0  0  0  0  0  0  0  0  0  0  0  0
   -2.2778    0.7228   -1.2714 H   0  0  0  0  0  0  0  0  0  0  0  0
  1  2  1  0
  2  3  1  0
  3  4  1  0
  4  5  2  0
  4  6  1  0
  6  7  1  0
  7  8  2  0
  8  9  1  0
  8 10  1  0
 10 11  1  0
 11 12  1  0
 11  6  2  0
  1 13  1  0
  1 14  1  0
  1 15  1  0
  2 16  1  0
  2 17  1  0
M  END
