
     RDKit          3D

 19 19  0  0  0  0  0  0  0  0999 V2000
   -3.2739   -0.1267    0.2921 C   0  0  0  0  0  0  0  0  0  0  0  0
   -2.4025   -0.2703   -0.9415 C   0  0  0  0  0  0  0  0  0  0  0  0
   -1.0316   -0.4512   -0.5593 O   0  0  0  0  0  0  0  0  0  0  0  0
   -0.3161    0.6867   -0.3590 C   0  0  0  0  0  0  0  0  0  0  0  0
   -0.7388    1.8266   -0.4513 O   0  0  0  0  0  0  0  0  0  0  0  0
    1.0759    0.3208    0.0020 C   0  0  0  0  0  0  0  0  0  0  0  0
    1.6137   -0.7335   -0.6908 N   0  0  0  0  0  0  0  0  0  0  0  0
    2.8876   -1.0540   -0.3836 C   0  0  0  0  0  0  0  0  0  0  0  0
    3.6993   -2.4944   -1.3003 Br  0  0  0  0  0  0  0  0  0  0  0  0
    3.6051   -0.3579    0.5759 C   0  0  0  0  0  0  0  0  0  0  0  0
    3.0797    0.6811    1.2720 N   0  0  0  0  0  0  0  0  0  0  0  0
    1.7940    1.0178    0.9712 C   0  0  0  0  0  0  0  0  0  0  0  0
    1.0662    2.4193    2.0275 Br  0  0  0  0  0  0  0  0  0  0  0  0
   -4.3286   -0.0455    0.0147 H   0  0  0  0  0  0  0  0  0  0  0  0
   -2.9948    0.7606    0.8692 H   0  0  0  0  0  0  0  0  0  0  0  0
   -3.1478   -0.9897    0.9542 H   0  0  0  0  0  0  0  0  0  0  0  0
   -2.6997   -1.1632   -1.5010 H   0  0  0  0  0  0  0  0  0  0  0  0
   -2.5179    0.5861   -1.6158 H   0  0  0  0  0  0  0  0  0  0  0  0
    4.6304   -0.6126    0.8238 H   0  0  0  0  0  0  0  0  0  0  0  0
  1  2  1  0
  2  3  1  0
  3  4  1  0
  4  5  2  0
  4  6  1  0
  6  7  2  0
  7  8  1  0
  8  9  1  0
  8 10  2  0
 10 11  1  0
 11 12  2  0
 12 13  1  0
 12  6  1  0
  1 14  1  0
  1 15  1  0
  1 16  1  0
  2 17  1  0
  2 18  1  0
 10 19  1  0
M  END
