
     RDKit          3D

 21 21  0  0  0  0  0  0  0  0999 V2000
    3.9373    0.6824   -0.2092 C   0  0  0  0  0  0  0  0  0  0  0  0
    2.9303    0.4600    0.9023 C   0  0  0  0  0  0  0  0  0  0  0  0
    1.6503    0.2271    0.3026 O   0  0  0  0  0  0  0  0  0  0  0  0
    0.6395   -0.0070    1.1866 C   0  0  0  0  0  0  0  0  0  0  0  0
    0.8001   -0.0083    2.4014 O   0  0  0  0  0  0  0  0  0  0  0  0
   -0.6400   -0.2329    0.5411 C   0  0  0  0  0  0  0  0  0  0  0  0
   -0.9464   -0.6268   -0.7859 C   0  0  0  0  0  0  0  0  0  0  0  0
    0.2911   -1.0367   -2.1511 Br  0  0  0  0  0  0  0  0  0  0  0  0
   -2.2563   -0.7375   -1.0209 N   0  0  0  0  0  0  0  0  0  0  0  0
   -2.8129   -0.4216    0.1588 N   0  0  0  0  0  0  0  0  0  0  0  0
   -4.2505   -0.4336    0.2919 C   0  0  0  0  0  0  0  0  0  0  0  0
   -1.8938   -0.1142    1.1211 C   0  0  0  0  0  0  0  0  0  0  0  0
   -2.3093    0.4091    2.9091 Br  0  0  0  0  0  0  0  0  0  0  0  0
    3.9809   -0.1899   -0.8698 H   0  0  0  0  0  0  0  0  0  0  0  0
    4.9348    0.8668    0.1990 H   0  0  0  0  0  0  0  0  0  0  0  0
    3.6449    1.5365   -0.8290 H   0  0  0  0  0  0  0  0  0  0  0  0
    3.2244   -0.4109    1.4986 H   0  0  0  0  0  0  0  0  0  0  0  0
    2.8824    1.3485    1.5418 H   0  0  0  0  0  0  0  0  0  0  0  0
   -4.5832    0.5752    0.5477 H   0  0  0  0  0  0  0  0  0  0  0  0
   -4.7026   -0.7419   -0.6547 H   0  0  0  0  0  0  0  0  0  0  0  0
   -4.5209   -1.1444    1.0766 H   0  0  0  0  0  0  0  0  0  0  0  0
  1  2  1  0
  2  3  1  0
  3  4  1  0
  4  5  2  0
  4  6  1  0
  6  7  1  0
  7  8  1  0
  7  9  2  0
  9 10  1  0
 10 11  1  0
 10 12  1  0
 12 13  1  0
 12  6  2  0
  1 14  1  0
  1 15  1  0
  1 16  1  0
  2 17  1  0
  2 18  1  0
 11 19  1  0
 11 20  1  0
 11 21  1  0
M  END
