
     RDKit          3D

 18 18  0  0  0  0  0  0  0  0999 V2000
   -1.8893   -2.4855    0.6118 C   0  0  0  0  0  0  0  0  0  0  0  0
   -1.8710   -0.9720    0.7021 C   0  0  0  0  0  0  0  0  0  0  0  0
   -0.6130   -0.5104    0.1950 O   0  0  0  0  0  0  0  0  0  0  0  0
   -0.4590    0.8484    0.2173 C   0  0  0  0  0  0  0  0  0  0  0  0
   -1.3166    1.6160    0.6333 O   0  0  0  0  0  0  0  0  0  0  0  0
    0.8429    1.2555   -0.3121 C   0  0  0  0  0  0  0  0  0  0  0  0
    1.8545    0.3427   -0.8031 C   0  0  0  0  0  0  0  0  0  0  0  0
    2.9785    0.9936   -1.2408 C   0  0  0  0  0  0  0  0  0  0  0  0
    4.5080    0.0977   -1.9519 Br  0  0  0  0  0  0  0  0  0  0  0  0
    2.8731    2.6710   -1.0870 S   0  0  0  0  0  0  0  0  0  0  0  0
    1.3053    2.5552   -0.4252 C   0  0  0  0  0  0  0  0  0  0  0  0
    0.3714    4.1573    0.0774 Br  0  0  0  0  0  0  0  0  0  0  0  0
   -1.7548   -2.8114   -0.4250 H   0  0  0  0  0  0  0  0  0  0  0  0
   -2.8338   -2.8876    0.9889 H   0  0  0  0  0  0  0  0  0  0  0  0
   -1.0652   -2.9161    1.1902 H   0  0  0  0  0  0  0  0  0  0  0  0
   -2.6875   -0.5561    0.1013 H   0  0  0  0  0  0  0  0  0  0  0  0
   -1.9848   -0.6628    1.7471 H   0  0  0  0  0  0  0  0  0  0  0  0
    1.7413   -0.7355   -0.8247 H   0  0  0  0  0  0  0  0  0  0  0  0
  1  2  1  0
  2  3  1  0
  3  4  1  0
  4  5  2  0
  4  6  1  0
  6  7  1  0
  7  8  2  0
  8  9  1  0
  8 10  1  0
 10 11  1  0
 11 12  1  0
 11  6  2  0
  1 13  1  0
  1 14  1  0
  1 15  1  0
  2 16  1  0
  2 17  1  0
  7 18  1  0
M  END
