
     RDKit          3D

 17 17  0  0  0  0  0  0  0  0999 V2000
   -2.7985   -0.6623   -0.3496 C   0  0  0  0  0  0  0  0  0  0  0  0
   -1.7817   -1.1891    0.6455 C   0  0  0  0  0  0  0  0  0  0  0  0
   -0.4534   -0.8636    0.2154 O   0  0  0  0  0  0  0  0  0  0  0  0
    0.0200    0.3635    0.5887 C   0  0  0  0  0  0  0  0  0  0  0  0
   -0.6269    1.1682    1.2487 O   0  0  0  0  0  0  0  0  0  0  0  0
    1.3843    0.5960    0.1023 C   0  0  0  0  0  0  0  0  0  0  0  0
    2.0544   -0.3851   -0.6499 N   0  0  0  0  0  0  0  0  0  0  0  0
    3.2510    0.0401   -0.9732 C   0  0  0  0  0  0  0  0  0  0  0  0
    4.4518   -1.0423   -2.0048 Br  0  0  0  0  0  0  0  0  0  0  0  0
    3.6794    1.5948   -0.4319 S   0  0  0  0  0  0  0  0  0  0  0  0
    2.1453    1.7341    0.3031 C   0  0  0  0  0  0  0  0  0  0  0  0
    1.6545    3.3170    1.2583 Br  0  0  0  0  0  0  0  0  0  0  0  0
   -3.8116   -0.9567   -0.0614 H   0  0  0  0  0  0  0  0  0  0  0  0
   -2.5902   -1.0484   -1.3528 H   0  0  0  0  0  0  0  0  0  0  0  0
   -2.7569    0.4296   -0.4138 H   0  0  0  0  0  0  0  0  0  0  0  0
   -1.8443   -2.2813    0.6910 H   0  0  0  0  0  0  0  0  0  0  0  0
   -1.9772   -0.8144    1.6567 H   0  0  0  0  0  0  0  0  0  0  0  0
  1  2  1  0
  2  3  1  0
  3  4  1  0
  4  5  2  0
  4  6  1  0
  6  7  1  0
  7  8  2  0
  8  9  1  0
  8 10  1  0
 10 11  1  0
 11 12  1  0
 11  6  2  0
  1 13  1  0
  1 14  1  0
  1 15  1  0
  2 16  1  0
  2 17  1  0
M  END
