
     RDKit          3D

 21 21  0  0  0  0  0  0  0  0999 V2000
    3.4502   -0.1670    0.5826 C   0  0  0  0  0  0  0  0  0  0  0  0
    2.6872    0.8751   -0.2136 C   0  0  0  0  0  0  0  0  0  0  0  0
    1.2778    0.7425    0.0218 O   0  0  0  0  0  0  0  0  0  0  0  0
    0.6378   -0.1536   -0.7691 C   0  0  0  0  0  0  0  0  0  0  0  0
    1.1195   -0.8333   -1.6566 O   0  0  0  0  0  0  0  0  0  0  0  0
   -0.7810   -0.1803   -0.3729 C   0  0  0  0  0  0  0  0  0  0  0  0
   -1.5090    1.0174   -0.4425 C   0  0  0  0  0  0  0  0  0  0  0  0
   -2.8596    1.0226   -0.1025 C   0  0  0  0  0  0  0  0  0  0  0  0
   -3.8437    2.6333   -0.1959 Br  0  0  0  0  0  0  0  0  0  0  0  0
   -3.4920   -0.1511    0.3037 C   0  0  0  0  0  0  0  0  0  0  0  0
   -2.7659   -1.3430    0.3744 C   0  0  0  0  0  0  0  0  0  0  0  0
   -1.4080   -1.3627    0.0362 C   0  0  0  0  0  0  0  0  0  0  0  0
   -0.4876   -3.0128    0.2116 Br  0  0  0  0  0  0  0  0  0  0  0  0
    3.2061   -0.0919    1.6474 H   0  0  0  0  0  0  0  0  0  0  0  0
    4.5289   -0.0377    0.4574 H   0  0  0  0  0  0  0  0  0  0  0  0
    3.1805   -1.1793    0.2651 H   0  0  0  0  0  0  0  0  0  0  0  0
    2.9746    1.8774    0.1205 H   0  0  0  0  0  0  0  0  0  0  0  0
    2.9198    0.8125   -1.2829 H   0  0  0  0  0  0  0  0  0  0  0  0
   -1.0196    1.9333   -0.7660 H   0  0  0  0  0  0  0  0  0  0  0  0
   -4.5467   -0.1500    0.5693 H   0  0  0  0  0  0  0  0  0  0  0  0
   -3.2690   -2.2516    0.6990 H   0  0  0  0  0  0  0  0  0  0  0  0
  1  2  1  0
  2  3  1  0
  3  4  1  0
  4  5  2  0
  4  6  1  0
  6  7  2  0
  7  8  1  0
  8  9  1  0
  8 10  2  0
 10 11  1  0
 11 12  2  0
 12 13  1  0
 12  6  1  0
  1 14  1  0
  1 15  1  0
  1 16  1  0
  2 17  1  0
  2 18  1  0
  7 19  1  0
 10 20  1  0
 11 21  1  0
M  END
