
     RDKit          3D

 27 28  0  0  0  0  0  0  0  0999 V2000
    4.7679    1.1377   -0.5150 C   0  0  0  0  0  0  0  0  0  0  0  0
    4.2721   -0.2691   -0.2376 C   0  0  0  0  0  0  0  0  0  0  0  0
    2.9034   -0.2373    0.1842 O   0  0  0  0  0  0  0  0  0  0  0  0
    1.9683   -0.2536   -0.8093 C   0  0  0  0  0  0  0  0  0  0  0  0
    2.2274   -0.2873   -2.0080 O   0  0  0  0  0  0  0  0  0  0  0  0
    0.6002   -0.2227   -0.2919 C   0  0  0  0  0  0  0  0  0  0  0  0
   -0.5523   -0.2281   -1.0537 C   0  0  0  0  0  0  0  0  0  0  0  0
   -1.6094   -0.1911   -0.1745 N   0  0  0  0  0  0  0  0  0  0  0  0
   -2.9962   -0.1801   -0.4385 C   0  0  0  0  0  0  0  0  0  0  0  0
   -3.4296   -0.2127   -1.8805 C   0  0  0  0  0  0  0  0  0  0  0  0
   -3.8349   -0.1409    0.6236 C   0  0  0  0  0  0  0  0  0  0  0  0
   -5.7028   -0.1195    0.5192 Br  0  0  0  0  0  0  0  0  0  0  0  0
   -3.2795   -0.1123    1.9726 C   0  0  0  0  0  0  0  0  0  0  0  0
   -1.9537   -0.1234    2.2039 C   0  0  0  0  0  0  0  0  0  0  0  0
   -1.2521   -0.0865    3.9319 Br  0  0  0  0  0  0  0  0  0  0  0  0
   -1.0500   -0.1644    1.1026 C   0  0  0  0  0  0  0  0  0  0  0  0
    0.2678   -0.1829    1.0483 N   0  0  0  0  0  0  0  0  0  0  0  0
    4.2060    1.5983   -1.3336 H   0  0  0  0  0  0  0  0  0  0  0  0
    5.8287    1.1296   -0.7809 H   0  0  0  0  0  0  0  0  0  0  0  0
    4.6288    1.7747    0.3646 H   0  0  0  0  0  0  0  0  0  0  0  0
    4.8500   -0.7069    0.5829 H   0  0  0  0  0  0  0  0  0  0  0  0
    4.4071   -0.9211   -1.1082 H   0  0  0  0  0  0  0  0  0  0  0  0
   -0.6853   -0.2546   -2.1260 H   0  0  0  0  0  0  0  0  0  0  0  0
   -3.0585   -1.1205   -2.3690 H   0  0  0  0  0  0  0  0  0  0  0  0
   -3.0354    0.6579   -2.4162 H   0  0  0  0  0  0  0  0  0  0  0  0
   -4.5135   -0.2023   -2.0156 H   0  0  0  0  0  0  0  0  0  0  0  0
   -3.9743   -0.0811    2.8079 H   0  0  0  0  0  0  0  0  0  0  0  0
  1  2  1  0
  2  3  1  0
  3  4  1  0
  4  5  2  0
  4  6  1  0
  6  7  2  0
  7  8  1  0
  8  9  1  0
  9 10  1  0
  9 11  2  0
 11 12  1  0
 11 13  1  0
 13 14  2  0
 14 15  1  0
 14 16  1  0
 16 17  2  0
 17  6  1  0
 16  8  1  0
  1 18  1  0
  1 19  1  0
  1 20  1  0
  2 21  1  0
  2 22  1  0
  7 23  1  0
 10 24  1  0
 10 25  1  0
 10 26  1  0
 13 27  1  0
M  END
