
     RDKit          3D

 20 20  0  0  0  0  0  0  0  0999 V2000
    3.3851   -0.0470    0.5512 C   0  0  0  0  0  0  0  0  0  0  0  0
    2.6431   -0.3112   -0.7454 C   0  0  0  0  0  0  0  0  0  0  0  0
    1.3800   -0.9402   -0.4743 O   0  0  0  0  0  0  0  0  0  0  0  0
    0.3402   -0.0980   -0.1988 C   0  0  0  0  0  0  0  0  0  0  0  0
    0.4159    1.1218   -0.1839 O   0  0  0  0  0  0  0  0  0  0  0  0
   -0.8990   -0.9095    0.0515 C   0  0  0  0  0  0  0  0  0  0  0  0
   -2.0179   -0.0820    0.4428 N   0  0  0  0  0  0  0  0  0  0  0  0
   -2.4871   -0.1253    1.7073 N   0  0  0  0  0  0  0  0  0  0  0  0
   -3.5285    0.7110    1.6291 C   0  0  0  0  0  0  0  0  0  0  0  0
   -4.6157    1.1084    3.1169 Br  0  0  0  0  0  0  0  0  0  0  0  0
   -3.7624    1.2336    0.3874 N   0  0  0  0  0  0  0  0  0  0  0  0
   -2.8000    0.7171   -0.3414 C   0  0  0  0  0  0  0  0  0  0  0  0
   -2.6031    1.0445   -2.2079 Br  0  0  0  0  0  0  0  0  0  0  0  0
    4.3732    0.3778    0.3529 H   0  0  0  0  0  0  0  0  0  0  0  0
    2.8281    0.6468    1.1887 H   0  0  0  0  0  0  0  0  0  0  0  0
    3.5068   -0.9745    1.1202 H   0  0  0  0  0  0  0  0  0  0  0  0
    3.2194   -1.0065   -1.3645 H   0  0  0  0  0  0  0  0  0  0  0  0
    2.5126    0.6074   -1.3289 H   0  0  0  0  0  0  0  0  0  0  0  0
   -1.1824   -1.4503   -0.8563 H   0  0  0  0  0  0  0  0  0  0  0  0
   -0.7082   -1.6241    0.8591 H   0  0  0  0  0  0  0  0  0  0  0  0
  1  2  1  0
  2  3  1  0
  3  4  1  0
  4  5  2  0
  4  6  1  0
  6  7  1  0
  7  8  1  0
  8  9  2  0
  9 10  1  0
  9 11  1  0
 11 12  2  0
 12 13  1  0
 12  7  1  0
  1 14  1  0
  1 15  1  0
  1 16  1  0
  2 17  1  0
  2 18  1  0
  6 19  1  0
  6 20  1  0
M  END
