
     RDKit          3D

 23 24  0  0  0  0  0  0  0  0999 V2000
    4.2788    0.1615    0.3823 C   0  0  0  0  0  0  0  0  0  0  0  0
    3.5159    0.2654   -0.9250 C   0  0  0  0  0  0  0  0  0  0  0  0
    2.1215    0.4743   -0.6689 O   0  0  0  0  0  0  0  0  0  0  0  0
    1.3713   -0.6494   -0.4818 C   0  0  0  0  0  0  0  0  0  0  0  0
    1.8096   -1.7943   -0.5134 O   0  0  0  0  0  0  0  0  0  0  0  0
   -0.0388   -0.3441   -0.2305 C   0  0  0  0  0  0  0  0  0  0  0  0
   -1.0404   -1.2774   -0.0023 C   0  0  0  0  0  0  0  0  0  0  0  0
   -2.1835   -0.5548    0.1815 N   0  0  0  0  0  0  0  0  0  0  0  0
   -3.4851   -0.9314    0.4422 C   0  0  0  0  0  0  0  0  0  0  0  0
   -4.4124    0.0353    0.5751 C   0  0  0  0  0  0  0  0  0  0  0  0
   -6.1975   -0.3867    0.9287 Br  0  0  0  0  0  0  0  0  0  0  0  0
   -4.1380    1.3886    0.4656 N   0  0  0  0  0  0  0  0  0  0  0  0
   -2.9049    1.7354    0.2190 C   0  0  0  0  0  0  0  0  0  0  0  0
   -2.5113    3.5883    0.0657 Br  0  0  0  0  0  0  0  0  0  0  0  0
   -1.8518    0.7685    0.0624 C   0  0  0  0  0  0  0  0  0  0  0  0
   -0.5718    0.9402   -0.1855 N   0  0  0  0  0  0  0  0  0  0  0  0
    4.1078    1.0501    0.9988 H   0  0  0  0  0  0  0  0  0  0  0  0
    5.3521    0.0608    0.1980 H   0  0  0  0  0  0  0  0  0  0  0  0
    3.9422   -0.7008    0.9665 H   0  0  0  0  0  0  0  0  0  0  0  0
    3.6787   -0.6160   -1.5558 H   0  0  0  0  0  0  0  0  0  0  0  0
    3.8713    1.1335   -1.4896 H   0  0  0  0  0  0  0  0  0  0  0  0
   -1.0153   -2.3579    0.0395 H   0  0  0  0  0  0  0  0  0  0  0  0
   -3.6983   -1.9891    0.5277 H   0  0  0  0  0  0  0  0  0  0  0  0
  1  2  1  0
  2  3  1  0
  3  4  1  0
  4  5  2  0
  4  6  1  0
  6  7  2  0
  7  8  1  0
  8  9  1  0
  9 10  2  0
 10 11  1  0
 10 12  1  0
 12 13  2  0
 13 14  1  0
 13 15  1  0
 15 16  2  0
 16  6  1  0
 15  8  1  0
  1 17  1  0
  1 18  1  0
  1 19  1  0
  2 20  1  0
  2 21  1  0
  7 22  1  0
  9 23  1  0
M  END
