
     RDKit          3D

 17 18  0  0  0  0  0  0  0  0999 V2000
    3.7325   -1.4531   -1.3009 Br  0  0  0  0  0  0  0  0  0  0  0  0
    2.1400   -0.6174   -0.7201 C   0  0  0  0  0  0  0  0  0  0  0  0
    2.1070    0.7601   -0.5454 C   0  0  0  0  0  0  0  0  0  0  0  0
    0.9277    1.3761   -0.1157 C   0  0  0  0  0  0  0  0  0  0  0  0
   -0.2456    0.6273    0.1491 C   0  0  0  0  0  0  0  0  0  0  0  0
   -1.4732    1.1762    0.5855 C   0  0  0  0  0  0  0  0  0  0  0  0
   -1.7336    3.0326    0.8861 Br  0  0  0  0  0  0  0  0  0  0  0  0
   -2.5519    0.3282    0.8099 C   0  0  0  0  0  0  0  0  0  0  0  0
   -2.5118   -1.0104    0.6377 N   0  0  0  0  0  0  0  0  0  0  0  0
   -1.3341   -1.5247    0.2206 C   0  0  0  0  0  0  0  0  0  0  0  0
   -0.1838   -0.7740   -0.0370 C   0  0  0  0  0  0  0  0  0  0  0  0
    1.0065   -1.3859   -0.4696 C   0  0  0  0  0  0  0  0  0  0  0  0
    2.9882    1.3669   -0.7389 H   0  0  0  0  0  0  0  0  0  0  0  0
    0.9400    2.4568    0.0098 H   0  0  0  0  0  0  0  0  0  0  0  0
   -3.5124    0.7103    1.1456 H   0  0  0  0  0  0  0  0  0  0  0  0
   -1.3412   -2.6052    0.0937 H   0  0  0  0  0  0  0  0  0  0  0  0
    1.0457   -2.4641   -0.6104 H   0  0  0  0  0  0  0  0  0  0  0  0
  1  2  1  0
  2  3  2  0
  3  4  1  0
  4  5  2  0
  5  6  1  0
  6  7  1  0
  6  8  2  0
  8  9  1  0
  9 10  2  0
 10 11  1  0
 11 12  2  0
 12  2  1  0
 11  5  1  0
  3 13  1  0
  4 14  1  0
  8 15  1  0
 10 16  1  0
 12 17  1  0
M  END
