
     RDKit          3D

 18 18  0  0  0  0  0  0  0  0999 V2000
   -3.3957    0.2977   -0.5740 C   0  0  0  0  0  0  0  0  0  0  0  0
   -1.9760    0.4500   -0.5117 O   0  0  0  0  0  0  0  0  0  0  0  0
   -1.3547   -0.4895    0.2468 C   0  0  0  0  0  0  0  0  0  0  0  0
   -1.9032   -1.3977    0.8454 O   0  0  0  0  0  0  0  0  0  0  0  0
    0.1075   -0.2513    0.2296 C   0  0  0  0  0  0  0  0  0  0  0  0
    0.6432    1.0186   -0.0337 C   0  0  0  0  0  0  0  0  0  0  0  0
    2.0305    1.2158   -0.0275 C   0  0  0  0  0  0  0  0  0  0  0  0
    2.6549    2.9716   -0.3949 Br  0  0  0  0  0  0  0  0  0  0  0  0
    2.8881    0.1426    0.2442 C   0  0  0  0  0  0  0  0  0  0  0  0
    4.7791    0.3072    0.2750 Br  0  0  0  0  0  0  0  0  0  0  0  0
    2.3541   -1.1210    0.5079 C   0  0  0  0  0  0  0  0  0  0  0  0
    0.9734   -1.3101    0.5005 C   0  0  0  0  0  0  0  0  0  0  0  0
    0.5100   -2.5441    0.7405 F   0  0  0  0  0  0  0  0  0  0  0  0
   -3.8352    0.3936    0.4238 H   0  0  0  0  0  0  0  0  0  0  0  0
   -3.7940    1.0960   -1.2062 H   0  0  0  0  0  0  0  0  0  0  0  0
   -3.6585   -0.6648   -1.0240 H   0  0  0  0  0  0  0  0  0  0  0  0
   -0.0194    1.8579   -0.2366 H   0  0  0  0  0  0  0  0  0  0  0  0
    2.9957   -1.9723    0.7195 H   0  0  0  0  0  0  0  0  0  0  0  0
  1  2  1  0
  2  3  1  0
  3  4  2  0
  3  5  1  0
  5  6  2  0
  6  7  1  0
  7  8  1  0
  7  9  2  0
  9 10  1  0
  9 11  1  0
 11 12  2  0
 12 13  1  0
 12  5  1  0
  1 14  1  0
  1 15  1  0
  1 16  1  0
  6 17  1  0
 11 18  1  0
M  END
