
     RDKit          3D

 17 17  0  0  0  0  0  0  0  0999 V2000
   -3.4222   -0.2229    0.1536 C   0  0  0  0  0  0  0  0  0  0  0  0
   -2.0116   -0.4510    0.1825 O   0  0  0  0  0  0  0  0  0  0  0  0
   -1.2695    0.6635   -0.0651 C   0  0  0  0  0  0  0  0  0  0  0  0
   -1.7261    1.7722   -0.2948 O   0  0  0  0  0  0  0  0  0  0  0  0
    0.1947    0.3343   -0.0154 C   0  0  0  0  0  0  0  0  0  0  0  0
    0.6539   -0.9523    0.2521 C   0  0  0  0  0  0  0  0  0  0  0  0
    2.0294   -1.1793    0.2813 C   0  0  0  0  0  0  0  0  0  0  0  0
    2.9098   -0.1236    0.0443 C   0  0  0  0  0  0  0  0  0  0  0  0
    4.7666   -0.4967    0.0978 Br  0  0  0  0  0  0  0  0  0  0  0  0
    2.3697    1.1341   -0.2160 C   0  0  0  0  0  0  0  0  0  0  0  0
    3.4664    2.6541   -0.5550 Br  0  0  0  0  0  0  0  0  0  0  0  0
    1.0358    1.3744   -0.2486 N   0  0  0  0  0  0  0  0  0  0  0  0
   -3.9224   -1.1725    0.3629 H   0  0  0  0  0  0  0  0  0  0  0  0
   -3.7347    0.1220   -0.8370 H   0  0  0  0  0  0  0  0  0  0  0  0
   -3.7102    0.4975    0.9257 H   0  0  0  0  0  0  0  0  0  0  0  0
   -0.0312   -1.7738    0.4366 H   0  0  0  0  0  0  0  0  0  0  0  0
    2.4018   -2.1799    0.4892 H   0  0  0  0  0  0  0  0  0  0  0  0
  1  2  1  0
  2  3  1  0
  3  4  2  0
  3  5  1  0
  5  6  2  0
  6  7  1  0
  7  8  2  0
  8  9  1  0
  8 10  1  0
 10 11  1  0
 10 12  2  0
 12  5  1  0
  1 13  1  0
  1 14  1  0
  1 15  1  0
  6 16  1  0
  7 17  1  0
M  END
