
     RDKit          3D

 18 18  0  0  0  0  0  0  0  0999 V2000
    3.4695    0.0526   -0.1866 C   0  0  0  0  0  0  0  0  0  0  0  0
    2.0843    0.3933   -0.1068 O   0  0  0  0  0  0  0  0  0  0  0  0
    1.2546   -0.6783   -0.0778 C   0  0  0  0  0  0  0  0  0  0  0  0
    1.5959   -1.8495   -0.1135 O   0  0  0  0  0  0  0  0  0  0  0  0
   -0.1653   -0.2422    0.0054 C   0  0  0  0  0  0  0  0  0  0  0  0
   -1.1568   -1.2326    0.0443 C   0  0  0  0  0  0  0  0  0  0  0  0
   -2.5003   -0.8677    0.1222 C   0  0  0  0  0  0  0  0  0  0  0  0
   -3.8325   -2.2083    0.1744 Br  0  0  0  0  0  0  0  0  0  0  0  0
   -2.8719    0.4742    0.1621 C   0  0  0  0  0  0  0  0  0  0  0  0
   -1.8836    1.4556    0.1233 C   0  0  0  0  0  0  0  0  0  0  0  0
   -2.3777    3.2804    0.1769 Br  0  0  0  0  0  0  0  0  0  0  0  0
   -0.5341    1.1094    0.0453 C   0  0  0  0  0  0  0  0  0  0  0  0
    3.7727   -0.5272    0.6908 H   0  0  0  0  0  0  0  0  0  0  0  0
    3.6755   -0.5006   -1.1083 H   0  0  0  0  0  0  0  0  0  0  0  0
    4.0460    0.9815   -0.2040 H   0  0  0  0  0  0  0  0  0  0  0  0
   -0.8763   -2.2842    0.0136 H   0  0  0  0  0  0  0  0  0  0  0  0
   -3.9209    0.7523    0.2229 H   0  0  0  0  0  0  0  0  0  0  0  0
    0.2210    1.8912    0.0160 H   0  0  0  0  0  0  0  0  0  0  0  0
  1  2  1  0
  2  3  1  0
  3  4  2  0
  3  5  1  0
  5  6  2  0
  6  7  1  0
  7  8  1  0
  7  9  2  0
  9 10  1  0
 10 11  1  0
 10 12  2  0
 12  5  1  0
  1 13  1  0
  1 14  1  0
  1 15  1  0
  6 16  1  0
  9 17  1  0
 12 18  1  0
M  END
