
     RDKit          3D

 21 21  0  0  0  0  0  0  0  0999 V2000
    4.1589   -0.2320   -0.3019 C   0  0  0  0  0  0  0  0  0  0  0  0
    2.7515   -0.4636   -0.2191 O   0  0  0  0  0  0  0  0  0  0  0  0
    2.0027    0.6641   -0.2920 C   0  0  0  0  0  0  0  0  0  0  0  0
    2.4302    1.8004   -0.4173 O   0  0  0  0  0  0  0  0  0  0  0  0
    0.5537    0.3405   -0.2000 C   0  0  0  0  0  0  0  0  0  0  0  0
    0.0835   -0.9645   -0.0396 C   0  0  0  0  0  0  0  0  0  0  0  0
   -1.2929   -1.2141    0.0423 C   0  0  0  0  0  0  0  0  0  0  0  0
   -1.8011   -3.0297    0.3138 Br  0  0  0  0  0  0  0  0  0  0  0  0
   -2.2352   -0.1704   -0.0530 C   0  0  0  0  0  0  0  0  0  0  0  0
   -3.7146   -0.4399    0.0509 C   0  0  0  0  0  0  0  0  0  0  0  0
   -1.7380    1.1416   -0.1817 C   0  0  0  0  0  0  0  0  0  0  0  0
   -2.8749    2.6683   -0.2284 Br  0  0  0  0  0  0  0  0  0  0  0  0
   -0.3629    1.3926   -0.2638 C   0  0  0  0  0  0  0  0  0  0  0  0
    4.6655   -1.1985   -0.2333 H   0  0  0  0  0  0  0  0  0  0  0  0
    4.4159    0.2268   -1.2619 H   0  0  0  0  0  0  0  0  0  0  0  0
    4.4938    0.3949    0.5305 H   0  0  0  0  0  0  0  0  0  0  0  0
    0.7842   -1.7939    0.0299 H   0  0  0  0  0  0  0  0  0  0  0  0
   -4.3057    0.2792   -0.5231 H   0  0  0  0  0  0  0  0  0  0  0  0
   -4.0285   -0.4031    1.0987 H   0  0  0  0  0  0  0  0  0  0  0  0
   -3.9858   -1.4129   -0.3682 H   0  0  0  0  0  0  0  0  0  0  0  0
   -0.0002    2.4143   -0.3714 H   0  0  0  0  0  0  0  0  0  0  0  0
  1  2  1  0
  2  3  1  0
  3  4  2  0
  3  5  1  0
  5  6  2  0
  6  7  1  0
  7  8  1  0
  7  9  2  0
  9 10  1  0
  9 11  1  0
 11 12  1  0
 11 13  2  0
 13  5  1  0
  1 14  1  0
  1 15  1  0
  1 16  1  0
  6 17  1  0
 10 18  1  0
 10 19  1  0
 10 20  1  0
 13 21  1  0
M  END
