
     RDKit          3D

 20 20  0  0  0  0  0  0  0  0999 V2000
    3.6776   -0.4569   -0.2350 C   0  0  0  0  0  0  0  0  0  0  0  0
    2.3190   -0.3144    0.1804 O   0  0  0  0  0  0  0  0  0  0  0  0
    1.4244   -0.5465   -0.8087 C   0  0  0  0  0  0  0  0  0  0  0  0
    1.6458   -0.8527   -1.9660 O   0  0  0  0  0  0  0  0  0  0  0  0
    0.0803   -0.3659   -0.2523 C   0  0  0  0  0  0  0  0  0  0  0  0
   -0.5777   -1.4530    0.3335 C   0  0  0  0  0  0  0  0  0  0  0  0
    0.2057   -3.1791    0.4582 Br  0  0  0  0  0  0  0  0  0  0  0  0
   -1.8570   -1.2877    0.8629 C   0  0  0  0  0  0  0  0  0  0  0  0
   -2.4803   -0.0406    0.7941 C   0  0  0  0  0  0  0  0  0  0  0  0
   -4.0637    0.1127    1.4782 Cl  0  0  0  0  0  0  0  0  0  0  0  0
   -1.8600    1.0594    0.1672 C   0  0  0  0  0  0  0  0  0  0  0  0
   -2.4522    2.3398    0.2289 N   0  0  0  0  0  0  0  0  0  0  0  0
   -0.5487    0.8880   -0.3253 C   0  0  0  0  0  0  0  0  0  0  0  0
    0.3458    2.3852   -1.1127 Br  0  0  0  0  0  0  0  0  0  0  0  0
    3.9144    0.2631   -1.0247 H   0  0  0  0  0  0  0  0  0  0  0  0
    3.8696   -1.4802   -0.5728 H   0  0  0  0  0  0  0  0  0  0  0  0
    4.3189   -0.2501    0.6262 H   0  0  0  0  0  0  0  0  0  0  0  0
   -2.3707   -2.1226    1.3346 H   0  0  0  0  0  0  0  0  0  0  0  0
   -2.1252    2.9836   -0.4879 H   0  0  0  0  0  0  0  0  0  0  0  0
   -3.4661    2.3179    0.3211 H   0  0  0  0  0  0  0  0  0  0  0  0
  1  2  1  0
  2  3  1  0
  3  4  2  0
  3  5  1  0
  5  6  2  0
  6  7  1  0
  6  8  1  0
  8  9  2  0
  9 10  1  0
  9 11  1  0
 11 12  1  0
 11 13  2  0
 13 14  1  0
 13  5  1  0
  1 15  1  0
  1 16  1  0
  1 17  1  0
  8 18  1  0
 12 19  1  0
 12 20  1  0
M  END
