
     RDKit          3D

 18 18  0  0  0  0  0  0  0  0999 V2000
    3.4166    0.4639    0.3550 C   0  0  0  0  0  0  0  0  0  0  0  0
    2.0244    0.7323    0.1921 O   0  0  0  0  0  0  0  0  0  0  0  0
    1.2424   -0.3735    0.1507 C   0  0  0  0  0  0  0  0  0  0  0  0
    1.6269   -1.5338    0.2391 O   0  0  0  0  0  0  0  0  0  0  0  0
   -0.1979   -0.0237   -0.0207 C   0  0  0  0  0  0  0  0  0  0  0  0
   -0.5094    1.2977   -0.1075 N   0  0  0  0  0  0  0  0  0  0  0  0
   -1.8095    1.6147   -0.2622 C   0  0  0  0  0  0  0  0  0  0  0  0
   -2.2534    3.4539   -0.3841 Br  0  0  0  0  0  0  0  0  0  0  0  0
   -2.8241    0.6776   -0.3358 C   0  0  0  0  0  0  0  0  0  0  0  0
   -2.4788   -0.6681   -0.2443 C   0  0  0  0  0  0  0  0  0  0  0  0
   -3.8705   -1.9547   -0.3451 Br  0  0  0  0  0  0  0  0  0  0  0  0
   -1.1468   -1.0454   -0.0837 C   0  0  0  0  0  0  0  0  0  0  0  0
   -0.8364   -2.3768    0.0034 O   0  0  0  0  0  0  0  0  0  0  0  0
    3.7941   -0.1250   -0.4869 H   0  0  0  0  0  0  0  0  0  0  0  0
    3.9468    1.4200    0.3748 H   0  0  0  0  0  0  0  0  0  0  0  0
    3.5986   -0.0536    1.3021 H   0  0  0  0  0  0  0  0  0  0  0  0
   -3.8574    0.9835   -0.4609 H   0  0  0  0  0  0  0  0  0  0  0  0
    0.1344   -2.4890    0.1140 H   0  0  0  0  0  0  0  0  0  0  0  0
  1  2  1  0
  2  3  1  0
  3  4  2  0
  3  5  1  0
  5  6  2  0
  6  7  1  0
  7  8  1  0
  7  9  2  0
  9 10  1  0
 10 11  1  0
 10 12  2  0
 12 13  1  0
 12  5  1  0
  1 14  1  0
  1 15  1  0
  1 16  1  0
  9 17  1  0
 13 18  1  0
M  END
