
     RDKit          3D

 21 21  0  0  0  0  0  0  0  0999 V2000
    4.0131   -0.2199   -0.7630 C   0  0  0  0  0  0  0  0  0  0  0  0
    2.9975   -0.1073    0.2353 O   0  0  0  0  0  0  0  0  0  0  0  0
    1.7264   -0.0863   -0.2661 C   0  0  0  0  0  0  0  0  0  0  0  0
    1.4467   -0.1554   -1.4544 O   0  0  0  0  0  0  0  0  0  0  0  0
    0.7436    0.0349    0.8793 C   0  0  0  0  0  0  0  0  0  0  0  0
   -0.7038    0.0683    0.4460 C   0  0  0  0  0  0  0  0  0  0  0  0
   -1.4338   -1.1219    0.3093 C   0  0  0  0  0  0  0  0  0  0  0  0
   -2.7658   -1.0843   -0.1080 C   0  0  0  0  0  0  0  0  0  0  0  0
   -3.7361   -2.6985   -0.2810 Br  0  0  0  0  0  0  0  0  0  0  0  0
   -3.3875    0.1275   -0.3984 C   0  0  0  0  0  0  0  0  0  0  0  0
   -2.6615    1.3090   -0.2718 C   0  0  0  0  0  0  0  0  0  0  0  0
   -3.4894    2.9626   -0.6684 Br  0  0  0  0  0  0  0  0  0  0  0  0
   -1.3288    1.2875    0.1444 C   0  0  0  0  0  0  0  0  0  0  0  0
    3.9815    0.6391   -1.4405 H   0  0  0  0  0  0  0  0  0  0  0  0
    4.9836   -0.2277   -0.2592 H   0  0  0  0  0  0  0  0  0  0  0  0
    3.9032   -1.1571   -1.3176 H   0  0  0  0  0  0  0  0  0  0  0  0
    0.8966   -0.8126    1.5582 H   0  0  0  0  0  0  0  0  0  0  0  0
    0.9734    0.9504    1.4376 H   0  0  0  0  0  0  0  0  0  0  0  0
   -0.9614   -2.0785    0.5224 H   0  0  0  0  0  0  0  0  0  0  0  0
   -4.4234    0.1503   -0.7243 H   0  0  0  0  0  0  0  0  0  0  0  0
   -0.7741    2.2198    0.2283 H   0  0  0  0  0  0  0  0  0  0  0  0
  1  2  1  0
  2  3  1  0
  3  4  2  0
  3  5  1  0
  5  6  1  0
  6  7  2  0
  7  8  1  0
  8  9  1  0
  8 10  2  0
 10 11  1  0
 11 12  1  0
 11 13  2  0
 13  6  1  0
  1 14  1  0
  1 15  1  0
  1 16  1  0
  5 17  1  0
  5 18  1  0
  7 19  1  0
 10 20  1  0
 13 21  1  0
M  END
