
     RDKit          3D

 17 17  0  0  0  0  0  0  0  0999 V2000
    3.3982    0.0036   -0.3149 C   0  0  0  0  0  0  0  0  0  0  0  0
    2.0001    0.2953   -0.3676 O   0  0  0  0  0  0  0  0  0  0  0  0
    1.2085   -0.7243    0.0653 C   0  0  0  0  0  0  0  0  0  0  0  0
    1.6141   -1.8028    0.4688 O   0  0  0  0  0  0  0  0  0  0  0  0
   -0.2380   -0.3334   -0.0241 C   0  0  0  0  0  0  0  0  0  0  0  0
   -0.6345    0.9122   -0.4933 C   0  0  0  0  0  0  0  0  0  0  0  0
   -1.9962    1.1827   -0.5394 C   0  0  0  0  0  0  0  0  0  0  0  0
   -2.5954    2.8616   -1.1690 Br  0  0  0  0  0  0  0  0  0  0  0  0
   -2.9217    0.2340   -0.1283 C   0  0  0  0  0  0  0  0  0  0  0  0
   -2.4350   -0.9780    0.3238 C   0  0  0  0  0  0  0  0  0  0  0  0
   -3.6670   -2.3013    0.8947 Br  0  0  0  0  0  0  0  0  0  0  0  0
   -1.1229   -1.2794    0.3842 N   0  0  0  0  0  0  0  0  0  0  0  0
    3.7107   -0.1912    0.7159 H   0  0  0  0  0  0  0  0  0  0  0  0
    3.9403    0.8799   -0.6809 H   0  0  0  0  0  0  0  0  0  0  0  0
    3.6373   -0.8465   -0.9616 H   0  0  0  0  0  0  0  0  0  0  0  0
    0.0887    1.6537   -0.8146 H   0  0  0  0  0  0  0  0  0  0  0  0
   -3.9871    0.4338   -0.1597 H   0  0  0  0  0  0  0  0  0  0  0  0
  1  2  1  0
  2  3  1  0
  3  4  2  0
  3  5  1  0
  5  6  2  0
  6  7  1  0
  7  8  1  0
  7  9  2  0
  9 10  1  0
 10 11  1  0
 10 12  2  0
 12  5  1  0
  1 13  1  0
  1 14  1  0
  1 15  1  0
  6 16  1  0
  9 17  1  0
M  END
