
     RDKit          3D

 31 31  0  0  0  0  0  0  0  0999 V2000
   -1.5277   -3.5029   -0.3180 C   0  0  0  0  0  0  0  0  0  0  0  0
   -2.0540   -2.0849   -0.1880 C   0  0  0  0  0  0  0  0  0  0  0  0
   -0.9562   -1.1919   -0.3751 O   0  0  0  0  0  0  0  0  0  0  0  0
   -1.2198    0.1511   -0.4016 C   0  0  0  0  0  0  0  0  0  0  0  0
   -2.4514    0.7230   -0.0903 C   0  0  0  0  0  0  0  0  0  0  0  0
   -2.6416    2.1153   -0.1668 C   0  0  0  0  0  0  0  0  0  0  0  0
   -3.9924    2.6214    0.1823 C   0  0  0  0  0  0  0  0  0  0  0  0
   -4.8821    1.8631    0.5555 O   0  0  0  0  0  0  0  0  0  0  0  0
   -1.5870    2.9569   -0.5609 C   0  0  0  0  0  0  0  0  0  0  0  0
   -1.8429    4.8488   -0.6693 Br  0  0  0  0  0  0  0  0  0  0  0  0
   -0.3380    2.3849   -0.8697 C   0  0  0  0  0  0  0  0  0  0  0  0
    1.1545    3.4516   -1.4168 Br  0  0  0  0  0  0  0  0  0  0  0  0
   -0.1574    0.9917   -0.7689 C   0  0  0  0  0  0  0  0  0  0  0  0
    1.0572    0.4481   -1.1225 O   0  0  0  0  0  0  0  0  0  0  0  0
    1.7951    0.0267    0.0266 C   0  0  0  0  0  0  0  0  0  0  0  0
    3.2638   -0.1639   -0.3226 C   0  0  0  0  0  0  0  0  0  0  0  0
    3.7763    0.0135   -1.4191 O   0  0  0  0  0  0  0  0  0  0  0  0
    3.9425   -0.5674    0.7950 O   0  0  0  0  0  0  0  0  0  0  0  0
    5.3391   -0.7759    0.5786 C   0  0  0  0  0  0  0  0  0  0  0  0
   -0.7454   -3.6932    0.4242 H   0  0  0  0  0  0  0  0  0  0  0  0
   -1.0760   -3.6574   -1.3036 H   0  0  0  0  0  0  0  0  0  0  0  0
   -2.3314   -4.2314   -0.1794 H   0  0  0  0  0  0  0  0  0  0  0  0
   -2.8209   -1.9154   -0.9526 H   0  0  0  0  0  0  0  0  0  0  0  0
   -2.4810   -1.9526    0.8124 H   0  0  0  0  0  0  0  0  0  0  0  0
   -3.2915    0.1035    0.2145 H   0  0  0  0  0  0  0  0  0  0  0  0
   -4.1913    3.6995    0.1028 H   0  0  0  0  0  0  0  0  0  0  0  0
    1.4156   -0.9371    0.3810 H   0  0  0  0  0  0  0  0  0  0  0  0
    1.7392    0.7797    0.8228 H   0  0  0  0  0  0  0  0  0  0  0  0
    5.8217    0.1552    0.2653 H   0  0  0  0  0  0  0  0  0  0  0  0
    5.7843   -1.0946    1.5251 H   0  0  0  0  0  0  0  0  0  0  0  0
    5.4987   -1.5655   -0.1623 H   0  0  0  0  0  0  0  0  0  0  0  0
  1  2  1  0
  2  3  1  0
  3  4  1  0
  4  5  2  0
  5  6  1  0
  6  7  1  0
  7  8  2  0
  6  9  2  0
  9 10  1  0
  9 11  1  0
 11 12  1  0
 11 13  2  0
 13 14  1  0
 14 15  1  0
 15 16  1  0
 16 17  2  0
 16 18  1  0
 18 19  1  0
 13  4  1  0
  1 20  1  0
  1 21  1  0
  1 22  1  0
  2 23  1  0
  2 24  1  0
  5 25  1  0
  7 26  1  0
 15 27  1  0
 15 28  1  0
 19 29  1  0
 19 30  1  0
 19 31  1  0
M  END
