
     RDKit          3D

 19 19  0  0  0  0  0  0  0  0999 V2000
   -3.5635    0.5435    0.2047 C   0  0  0  0  0  0  0  0  0  0  0  0
   -2.1369    0.5646    0.1685 O   0  0  0  0  0  0  0  0  0  0  0  0
   -1.5618   -0.6660    0.2505 C   0  0  0  0  0  0  0  0  0  0  0  0
   -2.1615   -1.7217    0.3706 O   0  0  0  0  0  0  0  0  0  0  0  0
   -0.0767   -0.5186    0.1783 C   0  0  0  0  0  0  0  0  0  0  0  0
    0.3666    0.4730   -0.6551 N   0  0  0  0  0  0  0  0  0  0  0  0
    1.6928    0.6462   -0.7886 C   0  0  0  0  0  0  0  0  0  0  0  0
    2.0716    1.6356   -1.6901 N   0  0  0  0  0  0  0  0  0  0  0  0
    2.6185   -0.1530   -0.1158 C   0  0  0  0  0  0  0  0  0  0  0  0
    4.4873    0.0936   -0.3090 Br  0  0  0  0  0  0  0  0  0  0  0  0
    2.1580   -1.1532    0.7385 C   0  0  0  0  0  0  0  0  0  0  0  0
    0.7847   -1.3463    0.8949 C   0  0  0  0  0  0  0  0  0  0  0  0
    0.2330   -2.6805    2.1211 Br  0  0  0  0  0  0  0  0  0  0  0  0
   -3.9201    1.5736    0.1195 H   0  0  0  0  0  0  0  0  0  0  0  0
   -3.9607   -0.0312   -0.6379 H   0  0  0  0  0  0  0  0  0  0  0  0
   -3.9163    0.1323    1.1557 H   0  0  0  0  0  0  0  0  0  0  0  0
    1.2378    2.1282   -1.9996 H   0  0  0  0  0  0  0  0  0  0  0  0
    2.7808    2.2553   -1.3148 H   0  0  0  0  0  0  0  0  0  0  0  0
    2.8665   -1.7754    1.2798 H   0  0  0  0  0  0  0  0  0  0  0  0
  1  2  1  0
  2  3  1  0
  3  4  2  0
  3  5  1  0
  5  6  2  0
  6  7  1  0
  7  8  1  0
  7  9  2  0
  9 10  1  0
  9 11  1  0
 11 12  2  0
 12 13  1  0
 12  5  1  0
  1 14  1  0
  1 15  1  0
  1 16  1  0
  8 17  1  0
  8 18  1  0
 11 19  1  0
M  END
