
     RDKit          3D

 15 15  0  0  0  0  0  0  0  0999 V2000
   -2.9578   -0.8969    0.0558 C   0  0  0  0  0  0  0  0  0  0  0  0
   -1.5332   -0.8718   -0.0200 O   0  0  0  0  0  0  0  0  0  0  0  0
   -0.9993    0.3816   -0.0781 C   0  0  0  0  0  0  0  0  0  0  0  0
   -1.6536    1.4177   -0.0682 O   0  0  0  0  0  0  0  0  0  0  0  0
    0.4417    0.3146   -0.1526 C   0  0  0  0  0  0  0  0  0  0  0  0
    1.3831    1.3267   -0.2264 C   0  0  0  0  0  0  0  0  0  0  0  0
    2.6408    0.6928   -0.2777 C   0  0  0  0  0  0  0  0  0  0  0  0
    4.2627    1.6239   -0.3855 Br  0  0  0  0  0  0  0  0  0  0  0  0
    2.4189   -0.6613   -0.2338 C   0  0  0  0  0  0  0  0  0  0  0  0
    3.7298   -2.0413   -0.2701 Br  0  0  0  0  0  0  0  0  0  0  0  0
    1.0787   -0.9004   -0.1573 O   0  0  0  0  0  0  0  0  0  0  0  0
   -3.2767   -1.9421    0.0975 H   0  0  0  0  0  0  0  0  0  0  0  0
   -3.3028   -0.3936    0.9644 H   0  0  0  0  0  0  0  0  0  0  0  0
   -3.3978   -0.4364   -0.8343 H   0  0  0  0  0  0  0  0  0  0  0  0
    1.1653    2.3864   -0.2401 H   0  0  0  0  0  0  0  0  0  0  0  0
  1  2  1  0
  2  3  1  0
  3  4  2  0
  3  5  1  0
  5  6  2  0
  6  7  1  0
  7  8  1  0
  7  9  2  0
  9 10  1  0
  9 11  1  0
 11  5  1  0
  1 12  1  0
  1 13  1  0
  1 14  1  0
  6 15  1  0
M  END
