
     RDKit          3D

 18 18  0  0  0  0  0  0  0  0999 V2000
    3.4189    0.1790   -0.0537 C   0  0  0  0  0  0  0  0  0  0  0  0
    2.0172    0.4084   -0.1990 O   0  0  0  0  0  0  0  0  0  0  0  0
    1.2455   -0.5360    0.3887 C   0  0  0  0  0  0  0  0  0  0  0  0
    1.6212   -1.5472    0.9565 O   0  0  0  0  0  0  0  0  0  0  0  0
   -0.1722   -0.2210    0.1429 C   0  0  0  0  0  0  0  0  0  0  0  0
   -0.9262   -1.1920   -0.5333 C   0  0  0  0  0  0  0  0  0  0  0  0
   -2.2757   -0.9651   -0.8076 C   0  0  0  0  0  0  0  0  0  0  0  0
   -2.8706    0.2265   -0.3967 C   0  0  0  0  0  0  0  0  0  0  0  0
   -4.6987    0.5347   -0.7672 Br  0  0  0  0  0  0  0  0  0  0  0  0
   -2.1340    1.1894    0.2943 C   0  0  0  0  0  0  0  0  0  0  0  0
   -0.7807    0.9648    0.5721 C   0  0  0  0  0  0  0  0  0  0  0  0
    0.1300    2.2869    1.5866 Br  0  0  0  0  0  0  0  0  0  0  0  0
    3.6967    0.1528    1.0048 H   0  0  0  0  0  0  0  0  0  0  0  0
    3.9493    1.0081   -0.5301 H   0  0  0  0  0  0  0  0  0  0  0  0
    3.7075   -0.7508   -0.5536 H   0  0  0  0  0  0  0  0  0  0  0  0
   -0.4609   -2.1247   -0.8478 H   0  0  0  0  0  0  0  0  0  0  0  0
   -2.8512   -1.7210   -1.3369 H   0  0  0  0  0  0  0  0  0  0  0  0
   -2.6160    2.1070    0.6238 H   0  0  0  0  0  0  0  0  0  0  0  0
  1  2  1  0
  2  3  1  0
  3  4  2  0
  3  5  1  0
  5  6  2  0
  6  7  1  0
  7  8  2  0
  8  9  1  0
  8 10  1  0
 10 11  2  0
 11 12  1  0
 11  5  1  0
  1 13  1  0
  1 14  1  0
  1 15  1  0
  6 16  1  0
  7 17  1  0
 10 18  1  0
M  END
