
     RDKit          3D

 18 18  0  0  0  0  0  0  0  0999 V2000
   -3.5039    0.1254   -0.0878 C   0  0  0  0  0  0  0  0  0  0  0  0
   -2.1110    0.4411   -0.0420 O   0  0  0  0  0  0  0  0  0  0  0  0
   -1.2984   -0.6375   -0.1521 C   0  0  0  0  0  0  0  0  0  0  0  0
   -1.6559   -1.7968   -0.2807 O   0  0  0  0  0  0  0  0  0  0  0  0
    0.1297   -0.2257   -0.0956 C   0  0  0  0  0  0  0  0  0  0  0  0
    0.5194    1.1076    0.0521 C   0  0  0  0  0  0  0  0  0  0  0  0
    1.8742    1.4284    0.0981 C   0  0  0  0  0  0  0  0  0  0  0  0
    2.2092    2.7197    0.2408 F   0  0  0  0  0  0  0  0  0  0  0  0
    2.8615    0.4447   -0.0002 C   0  0  0  0  0  0  0  0  0  0  0  0
    4.6794    0.9885    0.0738 Br  0  0  0  0  0  0  0  0  0  0  0  0
    2.4721   -0.8902   -0.1481 C   0  0  0  0  0  0  0  0  0  0  0  0
    3.7132   -2.3217   -0.2929 Br  0  0  0  0  0  0  0  0  0  0  0  0
    1.1114   -1.2223   -0.1954 C   0  0  0  0  0  0  0  0  0  0  0  0
   -3.7756   -0.5307    0.7451 H   0  0  0  0  0  0  0  0  0  0  0  0
   -3.7607   -0.3366   -1.0463 H   0  0  0  0  0  0  0  0  0  0  0  0
   -4.0658    1.0585    0.0086 H   0  0  0  0  0  0  0  0  0  0  0  0
   -0.2073    1.9109    0.1331 H   0  0  0  0  0  0  0  0  0  0  0  0
    0.8086   -2.2631   -0.3107 H   0  0  0  0  0  0  0  0  0  0  0  0
  1  2  1  0
  2  3  1  0
  3  4  2  0
  3  5  1  0
  5  6  2  0
  6  7  1  0
  7  8  1  0
  7  9  2  0
  9 10  1  0
  9 11  1  0
 11 12  1  0
 11 13  2  0
 13  5  1  0
  1 14  1  0
  1 15  1  0
  1 16  1  0
  6 17  1  0
 13 18  1  0
M  END
