
     RDKit          3D

 16 16  0  0  0  0  0  0  0  0999 V2000
   -2.6481    1.2874    1.1973 C   0  0  0  0  0  0  0  0  0  0  0  0
   -1.6547    0.4308    0.6335 O   0  0  0  0  0  0  0  0  0  0  0  0
   -0.4726    1.0483    0.3700 C   0  0  0  0  0  0  0  0  0  0  0  0
   -0.2293    2.2290    0.5539 O   0  0  0  0  0  0  0  0  0  0  0  0
    0.4817    0.0532   -0.1816 C   0  0  0  0  0  0  0  0  0  0  0  0
    0.4250   -1.1987    0.3757 N   0  0  0  0  0  0  0  0  0  0  0  0
    1.3068   -2.1005   -0.1030 C   0  0  0  0  0  0  0  0  0  0  0  0
    1.2905   -3.8470    0.6204 Br  0  0  0  0  0  0  0  0  0  0  0  0
    2.2137   -1.7774   -1.0994 C   0  0  0  0  0  0  0  0  0  0  0  0
    2.2734   -0.5449   -1.6624 N   0  0  0  0  0  0  0  0  0  0  0  0
    1.3896    0.3775   -1.1877 C   0  0  0  0  0  0  0  0  0  0  0  0
    1.4505    2.0632   -2.0621 Br  0  0  0  0  0  0  0  0  0  0  0  0
   -2.9014    2.0909    0.4987 H   0  0  0  0  0  0  0  0  0  0  0  0
   -3.5462    0.6910    1.3799 H   0  0  0  0  0  0  0  0  0  0  0  0
   -2.3041    1.6974    2.1521 H   0  0  0  0  0  0  0  0  0  0  0  0
    2.9252   -2.5002   -1.4853 H   0  0  0  0  0  0  0  0  0  0  0  0
  1  2  1  0
  2  3  1  0
  3  4  2  0
  3  5  1  0
  5  6  2  0
  6  7  1  0
  7  8  1  0
  7  9  2  0
  9 10  1  0
 10 11  2  0
 11 12  1  0
 11  5  1  0
  1 13  1  0
  1 14  1  0
  1 15  1  0
  9 16  1  0
M  END
