
     RDKit          3D

 17 17  0  0  0  0  0  0  0  0999 V2000
    3.3542    0.0975    0.3019 C   0  0  0  0  0  0  0  0  0  0  0  0
    2.2271   -0.2625   -0.5009 O   0  0  0  0  0  0  0  0  0  0  0  0
    1.0201    0.0167    0.0748 C   0  0  0  0  0  0  0  0  0  0  0  0
    0.8784    0.5104    1.1842 O   0  0  0  0  0  0  0  0  0  0  0  0
   -0.0824   -0.4058   -0.8540 C   0  0  0  0  0  0  0  0  0  0  0  0
   -1.3873   -0.0558   -0.3395 N   0  0  0  0  0  0  0  0  0  0  0  0
   -2.1118    0.9189   -0.9276 N   0  0  0  0  0  0  0  0  0  0  0  0
   -3.2392    0.8776   -0.2084 C   0  0  0  0  0  0  0  0  0  0  0  0
   -4.6833    2.0457   -0.5303 Br  0  0  0  0  0  0  0  0  0  0  0  0
   -3.2777   -0.0899    0.7571 N   0  0  0  0  0  0  0  0  0  0  0  0
   -2.1019   -0.6650    0.6523 C   0  0  0  0  0  0  0  0  0  0  0  0
   -1.5538   -2.1408    1.7252 Br  0  0  0  0  0  0  0  0  0  0  0  0
    3.3517   -0.4677    1.2391 H   0  0  0  0  0  0  0  0  0  0  0  0
    3.3573    1.1745    0.4967 H   0  0  0  0  0  0  0  0  0  0  0  0
    4.2607   -0.1569   -0.2542 H   0  0  0  0  0  0  0  0  0  0  0  0
   -0.0574   -1.4903   -0.9963 H   0  0  0  0  0  0  0  0  0  0  0  0
    0.0453    0.0934   -1.8202 H   0  0  0  0  0  0  0  0  0  0  0  0
  1  2  1  0
  2  3  1  0
  3  4  2  0
  3  5  1  0
  5  6  1  0
  6  7  1  0
  7  8  2  0
  8  9  1  0
  8 10  1  0
 10 11  2  0
 11 12  1  0
 11  6  1  0
  1 13  1  0
  1 14  1  0
  1 15  1  0
  5 16  1  0
  5 17  1  0
M  END
