
     RDKit          3D

 31 31  0  0  0  0  0  0  0  0999 V2000
   -1.2781    2.4064    2.6218 C   0  0  0  0  0  0  0  0  0  0  0  0
   -1.8961    1.3546    1.7185 C   0  0  0  0  0  0  0  0  0  0  0  0
   -0.8799    0.8833    0.8354 O   0  0  0  0  0  0  0  0  0  0  0  0
   -1.2440    0.0238   -0.1659 C   0  0  0  0  0  0  0  0  0  0  0  0
   -2.4812   -0.6096   -0.2565 C   0  0  0  0  0  0  0  0  0  0  0  0
   -2.7638   -1.4761   -1.3279 C   0  0  0  0  0  0  0  0  0  0  0  0
   -4.1048   -2.1081   -1.2796 C   0  0  0  0  0  0  0  0  0  0  0  0
   -4.3487   -3.2250   -1.7102 O   0  0  0  0  0  0  0  0  0  0  0  0
   -1.8156   -1.7002   -2.3422 C   0  0  0  0  0  0  0  0  0  0  0  0
   -2.2421   -2.7772   -3.8623 Br  0  0  0  0  0  0  0  0  0  0  0  0
   -0.5618   -1.0667   -2.2488 C   0  0  0  0  0  0  0  0  0  0  0  0
    0.7932   -1.2974   -3.5818 Br  0  0  0  0  0  0  0  0  0  0  0  0
   -0.2765   -0.2325   -1.1506 C   0  0  0  0  0  0  0  0  0  0  0  0
    0.9343    0.4208   -1.0918 O   0  0  0  0  0  0  0  0  0  0  0  0
    1.8222   -0.2246   -0.1763 C   0  0  0  0  0  0  0  0  0  0  0  0
    3.2143    0.3828   -0.2638 C   0  0  0  0  0  0  0  0  0  0  0  0
    3.5575    1.3058   -0.9896 O   0  0  0  0  0  0  0  0  0  0  0  0
    4.0439   -0.2687    0.6079 O   0  0  0  0  0  0  0  0  0  0  0  0
    5.3857    0.2213    0.6036 C   0  0  0  0  0  0  0  0  0  0  0  0
   -0.8767    3.2353    2.0294 H   0  0  0  0  0  0  0  0  0  0  0  0
   -0.4408    1.9847    3.1878 H   0  0  0  0  0  0  0  0  0  0  0  0
   -2.0175    2.8000    3.3249 H   0  0  0  0  0  0  0  0  0  0  0  0
   -2.2707    0.5293    2.3344 H   0  0  0  0  0  0  0  0  0  0  0  0
   -2.7188    1.8059    1.1519 H   0  0  0  0  0  0  0  0  0  0  0  0
   -3.2360   -0.4592    0.5099 H   0  0  0  0  0  0  0  0  0  0  0  0
   -4.8882   -1.5256   -0.7644 H   0  0  0  0  0  0  0  0  0  0  0  0
    1.4709   -0.0925    0.8527 H   0  0  0  0  0  0  0  0  0  0  0  0
    1.9086   -1.2911   -0.4175 H   0  0  0  0  0  0  0  0  0  0  0  0
    5.9617   -0.3633    1.3262 H   0  0  0  0  0  0  0  0  0  0  0  0
    5.4111    1.2718    0.9095 H   0  0  0  0  0  0  0  0  0  0  0  0
    5.8380    0.0925   -0.3847 H   0  0  0  0  0  0  0  0  0  0  0  0
  1  2  1  0
  2  3  1  0
  3  4  1  0
  4  5  2  0
  5  6  1  0
  6  7  1  0
  7  8  2  0
  6  9  2  0
  9 10  1  0
  9 11  1  0
 11 12  1  0
 11 13  2  0
 13 14  1  0
 14 15  1  0
 15 16  1  0
 16 17  2  0
 16 18  1  0
 18 19  1  0
 13  4  1  0
  1 20  1  0
  1 21  1  0
  1 22  1  0
  2 23  1  0
  2 24  1  0
  5 25  1  0
  7 26  1  0
 15 27  1  0
 15 28  1  0
 19 29  1  0
 19 30  1  0
 19 31  1  0
M  END
