
     RDKit          3D

 15 15  0  0  0  0  0  0  0  0999 V2000
    3.0147   -0.0363   -0.5220 C   0  0  0  0  0  0  0  0  0  0  0  0
    1.6326   -0.3794   -0.4254 O   0  0  0  0  0  0  0  0  0  0  0  0
    0.8214    0.6585   -0.0629 C   0  0  0  0  0  0  0  0  0  0  0  0
    1.2406    1.7896    0.1612 O   0  0  0  0  0  0  0  0  0  0  0  0
   -0.5960    0.2911    0.0323 C   0  0  0  0  0  0  0  0  0  0  0  0
   -1.5653    1.2303    0.3912 N   0  0  0  0  0  0  0  0  0  0  0  0
   -2.7119    0.5958    0.3851 C   0  0  0  0  0  0  0  0  0  0  0  0
   -4.3863    1.3958    0.8021 Br  0  0  0  0  0  0  0  0  0  0  0  0
   -2.5523   -0.7119    0.0415 N   0  0  0  0  0  0  0  0  0  0  0  0
   -1.2218   -0.9245   -0.1855 C   0  0  0  0  0  0  0  0  0  0  0  0
   -0.5153   -2.6096   -0.6939 Br  0  0  0  0  0  0  0  0  0  0  0  0
    3.3956    0.3011    0.4470 H   0  0  0  0  0  0  0  0  0  0  0  0
    3.5661   -0.9338   -0.8158 H   0  0  0  0  0  0  0  0  0  0  0  0
    3.1679    0.7294   -1.2890 H   0  0  0  0  0  0  0  0  0  0  0  0
   -3.2900   -1.3964   -0.0307 H   0  0  0  0  0  0  0  0  0  0  0  0
  1  2  1  0
  2  3  1  0
  3  4  2  0
  3  5  1  0
  5  6  1  0
  6  7  2  0
  7  8  1  0
  7  9  1  0
  9 10  1  0
 10 11  1  0
 10  5  2  0
  1 12  1  0
  1 13  1  0
  1 14  1  0
  9 15  1  0
M  END
