
     RDKit          3D

 16 16  0  0  0  0  0  0  0  0999 V2000
   -2.9761    0.5124    1.0118 C   0  0  0  0  0  0  0  0  0  0  0  0
   -1.5744    0.2643    0.9011 O   0  0  0  0  0  0  0  0  0  0  0  0
   -1.1343    0.1215   -0.3772 C   0  0  0  0  0  0  0  0  0  0  0  0
   -1.8286    0.1669   -1.3788 O   0  0  0  0  0  0  0  0  0  0  0  0
    0.3339   -0.1009   -0.3625 C   0  0  0  0  0  0  0  0  0  0  0  0
    1.0357    0.6181    0.5711 N   0  0  0  0  0  0  0  0  0  0  0  0
    2.3730    0.4402    0.5729 C   0  0  0  0  0  0  0  0  0  0  0  0
    3.4072    1.4016    1.8297 Br  0  0  0  0  0  0  0  0  0  0  0  0
    2.9965   -0.4196   -0.3167 C   0  0  0  0  0  0  0  0  0  0  0  0
    2.3115   -1.1408   -1.2389 N   0  0  0  0  0  0  0  0  0  0  0  0
    0.9595   -0.9702   -1.2539 C   0  0  0  0  0  0  0  0  0  0  0  0
    0.0323   -2.0617   -2.5023 Br  0  0  0  0  0  0  0  0  0  0  0  0
   -3.2182    0.6226    2.0724 H   0  0  0  0  0  0  0  0  0  0  0  0
   -3.5467   -0.3315    0.6116 H   0  0  0  0  0  0  0  0  0  0  0  0
   -3.2433    1.4406    0.4970 H   0  0  0  0  0  0  0  0  0  0  0  0
    4.0720   -0.5635   -0.3188 H   0  0  0  0  0  0  0  0  0  0  0  0
  1  2  1  0
  2  3  1  0
  3  4  2  0
  3  5  1  0
  5  6  2  0
  6  7  1  0
  7  8  1  0
  7  9  2  0
  9 10  1  0
 10 11  2  0
 11 12  1  0
 11  5  1  0
  1 13  1  0
  1 14  1  0
  1 15  1  0
  9 16  1  0
M  END
