
     RDKit          3D

 16 16  0  0  0  0  0  0  0  0999 V2000
   -3.0841    0.2278    0.6895 C   0  0  0  0  0  0  0  0  0  0  0  0
   -1.6724    0.4397    0.6405 O   0  0  0  0  0  0  0  0  0  0  0  0
   -0.9828   -0.5952    0.0796 C   0  0  0  0  0  0  0  0  0  0  0  0
   -1.4856   -1.6228   -0.3521 O   0  0  0  0  0  0  0  0  0  0  0  0
    0.4258   -0.2854    0.0770 C   0  0  0  0  0  0  0  0  0  0  0  0
    1.4803   -1.0540   -0.3968 C   0  0  0  0  0  0  0  0  0  0  0  0
    2.6705   -0.3276   -0.1798 C   0  0  0  0  0  0  0  0  0  0  0  0
    4.3668   -0.9646   -0.6593 Br  0  0  0  0  0  0  0  0  0  0  0  0
    2.3356    0.8592    0.4153 C   0  0  0  0  0  0  0  0  0  0  0  0
    3.4913    2.2646    0.9562 Br  0  0  0  0  0  0  0  0  0  0  0  0
    0.9783    0.8802    0.5685 N   0  0  0  0  0  0  0  0  0  0  0  0
   -3.4911    0.1174   -0.3206 H   0  0  0  0  0  0  0  0  0  0  0  0
   -3.5420    1.1064    1.1522 H   0  0  0  0  0  0  0  0  0  0  0  0
   -3.3198   -0.6480    1.3022 H   0  0  0  0  0  0  0  0  0  0  0  0
    1.3814   -2.0340   -0.8486 H   0  0  0  0  0  0  0  0  0  0  0  0
    0.4476    1.6363    0.9811 H   0  0  0  0  0  0  0  0  0  0  0  0
  1  2  1  0
  2  3  1  0
  3  4  2  0
  3  5  1  0
  5  6  2  0
  6  7  1  0
  7  8  1  0
  7  9  2  0
  9 10  1  0
  9 11  1  0
 11  5  1  0
  1 12  1  0
  1 13  1  0
  1 14  1  0
  6 15  1  0
 11 16  1  0
M  END
