
     RDKit          3D

 15 15  0  0  0  0  0  0  0  0999 V2000
   -3.0972   -0.6221   -0.6115 C   0  0  0  0  0  0  0  0  0  0  0  0
   -1.6791   -0.7655   -0.5306 O   0  0  0  0  0  0  0  0  0  0  0  0
   -1.0307    0.3377   -0.0569 C   0  0  0  0  0  0  0  0  0  0  0  0
   -1.5952    1.3735    0.2767 O   0  0  0  0  0  0  0  0  0  0  0  0
    0.4067    0.1325    0.0028 C   0  0  0  0  0  0  0  0  0  0  0  0
    1.3491    1.0527    0.4361 C   0  0  0  0  0  0  0  0  0  0  0  0
    2.6721    0.5405    0.3702 C   0  0  0  0  0  0  0  0  0  0  0  0
    4.1411    1.6001    0.9056 Br  0  0  0  0  0  0  0  0  0  0  0  0
    2.7070   -0.7427   -0.1059 C   0  0  0  0  0  0  0  0  0  0  0  0
    4.2807   -1.8034   -0.3530 Br  0  0  0  0  0  0  0  0  0  0  0  0
    1.1589   -1.3358   -0.4744 S   0  0  0  0  0  0  0  0  0  0  0  0
   -3.5219   -0.4423    0.3810 H   0  0  0  0  0  0  0  0  0  0  0  0
   -3.3624    0.1860   -1.3004 H   0  0  0  0  0  0  0  0  0  0  0  0
   -3.5104   -1.5570   -1.0001 H   0  0  0  0  0  0  0  0  0  0  0  0
    1.0814    2.0457    0.7818 H   0  0  0  0  0  0  0  0  0  0  0  0
  1  2  1  0
  2  3  1  0
  3  4  2  0
  3  5  1  0
  5  6  2  0
  6  7  1  0
  7  8  1  0
  7  9  2  0
  9 10  1  0
  9 11  1  0
 11  5  1  0
  1 12  1  0
  1 13  1  0
  1 14  1  0
  6 15  1  0
M  END
