
     RDKit          3D

 17 17  0  0  0  0  0  0  0  0999 V2000
    3.2376   -0.1390   -0.1362 C   0  0  0  0  0  0  0  0  0  0  0  0
    1.8839    0.2760    0.0586 O   0  0  0  0  0  0  0  0  0  0  0  0
    0.9670   -0.6619   -0.2803 C   0  0  0  0  0  0  0  0  0  0  0  0
    1.2045   -1.7762   -0.7167 O   0  0  0  0  0  0  0  0  0  0  0  0
   -0.4098   -0.1563   -0.0499 C   0  0  0  0  0  0  0  0  0  0  0  0
   -0.6627    1.1213    0.4499 C   0  0  0  0  0  0  0  0  0  0  0  0
   -1.9824    1.4947    0.6278 C   0  0  0  0  0  0  0  0  0  0  0  0
   -2.3582    3.2255    1.3058 Br  0  0  0  0  0  0  0  0  0  0  0  0
   -3.0307    0.6958    0.3460 N   0  0  0  0  0  0  0  0  0  0  0  0
   -2.7587   -0.5334   -0.1357 C   0  0  0  0  0  0  0  0  0  0  0  0
   -4.2277   -1.6635   -0.5347 Br  0  0  0  0  0  0  0  0  0  0  0  0
   -1.4772   -1.0038   -0.3500 C   0  0  0  0  0  0  0  0  0  0  0  0
    3.4224   -0.3596   -1.1922 H   0  0  0  0  0  0  0  0  0  0  0  0
    3.8907    0.6846    0.1652 H   0  0  0  0  0  0  0  0  0  0  0  0
    3.4652   -1.0086    0.4882 H   0  0  0  0  0  0  0  0  0  0  0  0
    0.1414    1.8069    0.6942 H   0  0  0  0  0  0  0  0  0  0  0  0
   -1.3056   -2.0027   -0.7402 H   0  0  0  0  0  0  0  0  0  0  0  0
  1  2  1  0
  2  3  1  0
  3  4  2  0
  3  5  1  0
  5  6  2  0
  6  7  1  0
  7  8  1  0
  7  9  2  0
  9 10  1  0
 10 11  1  0
 10 12  2  0
 12  5  1  0
  1 13  1  0
  1 14  1  0
  1 15  1  0
  6 16  1  0
 12 17  1  0
M  END
