
     RDKit          3D

 21 21  0  0  0  0  0  0  0  0999 V2000
    3.9897   -0.4413    0.6894 C   0  0  0  0  0  0  0  0  0  0  0  0
    2.9394   -0.6358   -0.2594 O   0  0  0  0  0  0  0  0  0  0  0  0
    1.7104   -0.2346    0.1834 C   0  0  0  0  0  0  0  0  0  0  0  0
    1.4924    0.2504    1.2844 O   0  0  0  0  0  0  0  0  0  0  0  0
    0.6855   -0.4888   -0.9017 C   0  0  0  0  0  0  0  0  0  0  0  0
   -0.7208   -0.0827   -0.5258 C   0  0  0  0  0  0  0  0  0  0  0  0
   -1.5778   -0.9915    0.1127 C   0  0  0  0  0  0  0  0  0  0  0  0
   -2.8701   -0.6037    0.4724 C   0  0  0  0  0  0  0  0  0  0  0  0
   -4.0135   -1.8444    1.3271 Br  0  0  0  0  0  0  0  0  0  0  0  0
   -3.3263    0.6854    0.2094 C   0  0  0  0  0  0  0  0  0  0  0  0
   -2.4738    1.5914   -0.4162 C   0  0  0  0  0  0  0  0  0  0  0  0
   -3.0759    3.3481   -0.7747 Br  0  0  0  0  0  0  0  0  0  0  0  0
   -1.1788    1.2184   -0.7819 C   0  0  0  0  0  0  0  0  0  0  0  0
    4.0986    0.6212    0.9282 H   0  0  0  0  0  0  0  0  0  0  0  0
    3.8011   -1.0263    1.5951 H   0  0  0  0  0  0  0  0  0  0  0  0
    4.9222   -0.7921    0.2388 H   0  0  0  0  0  0  0  0  0  0  0  0
    0.6980   -1.5576   -1.1467 H   0  0  0  0  0  0  0  0  0  0  0  0
    0.9900    0.0595   -1.8013 H   0  0  0  0  0  0  0  0  0  0  0  0
   -1.2350   -2.0000    0.3348 H   0  0  0  0  0  0  0  0  0  0  0  0
   -4.3320    0.9819    0.4932 H   0  0  0  0  0  0  0  0  0  0  0  0
   -0.5231    1.9425   -1.2611 H   0  0  0  0  0  0  0  0  0  0  0  0
  1  2  1  0
  2  3  1  0
  3  4  2  0
  3  5  1  0
  5  6  1  0
  6  7  2  0
  7  8  1  0
  8  9  1  0
  8 10  2  0
 10 11  1  0
 11 12  1  0
 11 13  2  0
 13  6  1  0
  1 14  1  0
  1 15  1  0
  1 16  1  0
  5 17  1  0
  5 18  1  0
  7 19  1  0
 10 20  1  0
 13 21  1  0
M  END
