
     RDKit          3D

 19 19  0  0  0  0  0  0  0  0999 V2000
    3.3096    0.7335   -0.5354 C   0  0  0  0  0  0  0  0  0  0  0  0
    1.9110    0.7647   -0.2309 O   0  0  0  0  0  0  0  0  0  0  0  0
    1.2924   -0.4360   -0.3747 C   0  0  0  0  0  0  0  0  0  0  0  0
    1.8345   -1.4712   -0.7273 O   0  0  0  0  0  0  0  0  0  0  0  0
   -0.1578   -0.3393   -0.0443 C   0  0  0  0  0  0  0  0  0  0  0  0
   -0.8979   -1.5295   -0.1598 C   0  0  0  0  0  0  0  0  0  0  0  0
   -2.2616   -1.5434    0.1269 C   0  0  0  0  0  0  0  0  0  0  0  0
   -3.2368   -3.1546   -0.0352 Br  0  0  0  0  0  0  0  0  0  0  0  0
   -2.9116   -0.3827    0.5312 C   0  0  0  0  0  0  0  0  0  0  0  0
   -2.1860    0.8039    0.6490 C   0  0  0  0  0  0  0  0  0  0  0  0
   -3.1221    2.3615    1.2052 Br  0  0  0  0  0  0  0  0  0  0  0  0
   -0.8118    0.8365    0.3644 C   0  0  0  0  0  0  0  0  0  0  0  0
   -0.1672    2.0386    0.5029 O   0  0  0  0  0  0  0  0  0  0  0  0
    3.4675    0.4457   -1.5794 H   0  0  0  0  0  0  0  0  0  0  0  0
    3.8333    0.0511    0.1413 H   0  0  0  0  0  0  0  0  0  0  0  0
    3.7086    1.7411   -0.3892 H   0  0  0  0  0  0  0  0  0  0  0  0
   -0.4049   -2.4484   -0.4753 H   0  0  0  0  0  0  0  0  0  0  0  0
   -3.9757   -0.3994    0.7536 H   0  0  0  0  0  0  0  0  0  0  0  0
    0.7766    1.9279    0.2769 H   0  0  0  0  0  0  0  0  0  0  0  0
  1  2  1  0
  2  3  1  0
  3  4  2  0
  3  5  1  0
  5  6  2  0
  6  7  1  0
  7  8  1  0
  7  9  2  0
  9 10  1  0
 10 11  1  0
 10 12  2  0
 12 13  1  0
 12  5  1  0
  1 14  1  0
  1 15  1  0
  1 16  1  0
  6 17  1  0
  9 18  1  0
 13 19  1  0
M  END
