
     RDKit          3D

 17 17  0  0  0  0  0  0  0  0999 V2000
    3.2391    0.2880    0.0402 C   0  0  0  0  0  0  0  0  0  0  0  0
    1.8865    0.1453    0.4775 O   0  0  0  0  0  0  0  0  0  0  0  0
    1.0135   -0.1195   -0.5215 C   0  0  0  0  0  0  0  0  0  0  0  0
    1.2537   -0.1896   -1.7141 O   0  0  0  0  0  0  0  0  0  0  0  0
   -0.3403   -0.2006    0.0321 C   0  0  0  0  0  0  0  0  0  0  0  0
   -1.2967    0.6962   -0.4592 C   0  0  0  0  0  0  0  0  0  0  0  0
   -2.5901    0.6442    0.0439 C   0  0  0  0  0  0  0  0  0  0  0  0
   -3.9097    1.8383   -0.5741 Br  0  0  0  0  0  0  0  0  0  0  0  0
   -2.8863   -0.3041    1.0096 C   0  0  0  0  0  0  0  0  0  0  0  0
   -1.9846   -1.1955    1.4873 N   0  0  0  0  0  0  0  0  0  0  0  0
   -0.7221   -1.1371    0.9868 C   0  0  0  0  0  0  0  0  0  0  0  0
    0.4624   -2.4826    1.6285 Br  0  0  0  0  0  0  0  0  0  0  0  0
    3.8629    0.4650    0.9207 H   0  0  0  0  0  0  0  0  0  0  0  0
    3.5830   -0.6281   -0.4501 H   0  0  0  0  0  0  0  0  0  0  0  0
    3.3340    1.1469   -0.6315 H   0  0  0  0  0  0  0  0  0  0  0  0
   -1.0240    1.4210   -1.2228 H   0  0  0  0  0  0  0  0  0  0  0  0
   -3.8815   -0.3878    1.4390 H   0  0  0  0  0  0  0  0  0  0  0  0
  1  2  1  0
  2  3  1  0
  3  4  2  0
  3  5  1  0
  5  6  2  0
  6  7  1  0
  7  8  1  0
  7  9  2  0
  9 10  1  0
 10 11  2  0
 11 12  1  0
 11  5  1  0
  1 13  1  0
  1 14  1  0
  1 15  1  0
  6 16  1  0
  9 17  1  0
M  END
