
     RDKit          3D

 21 21  0  0  0  0  0  0  0  0999 V2000
    4.0098    0.0093   -0.6419 C   0  0  0  0  0  0  0  0  0  0  0  0
    2.7395   -0.1011    0.0026 O   0  0  0  0  0  0  0  0  0  0  0  0
    1.6843    0.1274   -0.8171 C   0  0  0  0  0  0  0  0  0  0  0  0
    1.7469    0.4056   -2.0040 O   0  0  0  0  0  0  0  0  0  0  0  0
    0.4014   -0.0060   -0.0732 C   0  0  0  0  0  0  0  0  0  0  0  0
   -0.7943    0.1990   -0.7740 C   0  0  0  0  0  0  0  0  0  0  0  0
   -2.0433    0.0894   -0.1356 C   0  0  0  0  0  0  0  0  0  0  0  0
   -3.2873    0.3232   -0.9515 C   0  0  0  0  0  0  0  0  0  0  0  0
   -2.0826   -0.2334    1.2365 C   0  0  0  0  0  0  0  0  0  0  0  0
   -3.7716   -0.3854    2.1160 Br  0  0  0  0  0  0  0  0  0  0  0  0
   -0.8820   -0.4390    1.9390 C   0  0  0  0  0  0  0  0  0  0  0  0
   -0.8185   -0.8785    3.7907 Br  0  0  0  0  0  0  0  0  0  0  0  0
    0.3516   -0.3255    1.2864 C   0  0  0  0  0  0  0  0  0  0  0  0
    4.0982   -0.7304   -1.4438 H   0  0  0  0  0  0  0  0  0  0  0  0
    4.1561    1.0223   -1.0298 H   0  0  0  0  0  0  0  0  0  0  0  0
    4.7854   -0.1921    0.1021 H   0  0  0  0  0  0  0  0  0  0  0  0
   -0.7502    0.4481   -1.8350 H   0  0  0  0  0  0  0  0  0  0  0  0
   -3.9131   -0.5749   -0.9628 H   0  0  0  0  0  0  0  0  0  0  0  0
   -3.8556    1.1686   -0.5509 H   0  0  0  0  0  0  0  0  0  0  0  0
   -3.0456    0.5612   -1.9932 H   0  0  0  0  0  0  0  0  0  0  0  0
    1.2710   -0.4877    1.8446 H   0  0  0  0  0  0  0  0  0  0  0  0
  1  2  1  0
  2  3  1  0
  3  4  2  0
  3  5  1  0
  5  6  2  0
  6  7  1  0
  7  8  1  0
  7  9  2  0
  9 10  1  0
  9 11  1  0
 11 12  1  0
 11 13  2  0
 13  5  1  0
  1 14  1  0
  1 15  1  0
  1 16  1  0
  6 17  1  0
  8 18  1  0
  8 19  1  0
  8 20  1  0
 13 21  1  0
M  END
