
     RDKit          3D

 20 20  0  0  0  0  0  0  0  0999 V2000
    3.4324    0.7675   -1.2805 C   0  0  0  0  0  0  0  0  0  0  0  0
    2.0978    0.2931   -1.1009 O   0  0  0  0  0  0  0  0  0  0  0  0
    1.6654    0.3680    0.1796 C   0  0  0  0  0  0  0  0  0  0  0  0
    2.2690    0.7780    1.1542 O   0  0  0  0  0  0  0  0  0  0  0  0
    0.2926   -0.1443    0.2227 C   0  0  0  0  0  0  0  0  0  0  0  0
    0.0700   -1.5099    0.4316 C   0  0  0  0  0  0  0  0  0  0  0  0
    1.4859   -2.7571    0.6517 Br  0  0  0  0  0  0  0  0  0  0  0  0
   -1.2336   -2.0027    0.4752 C   0  0  0  0  0  0  0  0  0  0  0  0
   -2.3111   -1.1283    0.3227 C   0  0  0  0  0  0  0  0  0  0  0  0
   -3.9085   -1.7947    0.3724 Cl  0  0  0  0  0  0  0  0  0  0  0  0
   -2.1169    0.2585    0.1587 C   0  0  0  0  0  0  0  0  0  0  0  0
   -3.2135    1.1010   -0.1268 N   0  0  0  0  0  0  0  0  0  0  0  0
   -0.7918    0.7361    0.0736 C   0  0  0  0  0  0  0  0  0  0  0  0
   -0.4999    2.6036   -0.2252 Br  0  0  0  0  0  0  0  0  0  0  0  0
    4.1350    0.1652   -0.6959 H   0  0  0  0  0  0  0  0  0  0  0  0
    3.6881    0.6681   -2.3390 H   0  0  0  0  0  0  0  0  0  0  0  0
    3.5040    1.8241   -1.0041 H   0  0  0  0  0  0  0  0  0  0  0  0
   -1.4170   -3.0649    0.6212 H   0  0  0  0  0  0  0  0  0  0  0  0
   -4.1004    0.7554    0.2350 H   0  0  0  0  0  0  0  0  0  0  0  0
   -3.0476    2.0832    0.0804 H   0  0  0  0  0  0  0  0  0  0  0  0
  1  2  1  0
  2  3  1  0
  3  4  2  0
  3  5  1  0
  5  6  2  0
  6  7  1  0
  6  8  1  0
  8  9  2  0
  9 10  1  0
  9 11  1  0
 11 12  1  0
 11 13  2  0
 13 14  1  0
 13  5  1  0
  1 15  1  0
  1 16  1  0
  1 17  1  0
  8 18  1  0
 12 19  1  0
 12 20  1  0
M  END
