
     RDKit          3D

 15 15  0  0  0  0  0  0  0  0999 V2000
   -2.7862   -0.2982   -0.6195 C   0  0  0  0  0  0  0  0  0  0  0  0
   -1.4998   -0.3048    0.0011 O   0  0  0  0  0  0  0  0  0  0  0  0
   -0.5037    0.2295   -0.7694 C   0  0  0  0  0  0  0  0  0  0  0  0
   -0.6894    0.6765   -1.8936 O   0  0  0  0  0  0  0  0  0  0  0  0
    0.7894    0.1969   -0.0852 C   0  0  0  0  0  0  0  0  0  0  0  0
    1.0045   -0.3331    1.2454 C   0  0  0  0  0  0  0  0  0  0  0  0
    2.3134   -0.2382    1.6413 C   0  0  0  0  0  0  0  0  0  0  0  0
    2.9498   -0.8407    3.3382 Br  0  0  0  0  0  0  0  0  0  0  0  0
    3.3076    0.4669    0.4738 S   0  0  0  0  0  0  0  0  0  0  0  0
    1.9909    0.6598   -0.5933 C   0  0  0  0  0  0  0  0  0  0  0  0
    2.2805    1.4610   -2.3154 Br  0  0  0  0  0  0  0  0  0  0  0  0
   -3.1044    0.7272   -0.8321 H   0  0  0  0  0  0  0  0  0  0  0  0
   -3.5005   -0.7440    0.0782 H   0  0  0  0  0  0  0  0  0  0  0  0
   -2.7743   -0.9000   -1.5337 H   0  0  0  0  0  0  0  0  0  0  0  0
    0.2222   -0.7586    1.8641 H   0  0  0  0  0  0  0  0  0  0  0  0
  1  2  1  0
  2  3  1  0
  3  4  2  0
  3  5  1  0
  5  6  1  0
  6  7  2  0
  7  8  1  0
  7  9  1  0
  9 10  1  0
 10 11  1  0
 10  5  2  0
  1 12  1  0
  1 13  1  0
  1 14  1  0
  6 15  1  0
M  END
