
     RDKit          3D

 43 45  0  0  0  0  0  0  0  0999 V2000
    5.1291   -0.4132   -0.0705 C   0  0  0  0  0  0  0  0  0  0  0  0
    3.6322   -0.3115   -0.0707 C   0  0  0  0  0  0  0  0  0  0  0  0
    2.9876    0.6388   -0.8674 C   0  0  0  0  0  0  0  0  0  0  0  0
    1.5878    0.7586   -0.8692 C   0  0  0  0  0  0  0  0  0  0  0  0
    0.8148   -0.0694   -0.0165 C   0  0  0  0  0  0  0  0  0  0  0  0
    1.4680   -1.0132    0.8160 C   0  0  0  0  0  0  0  0  0  0  0  0
    2.8675   -1.1267    0.7683 C   0  0  0  0  0  0  0  0  0  0  0  0
    0.7086   -1.9143    1.7531 C   0  0  0  0  0  0  0  0  0  0  0  0
   -0.6275    0.0498    0.0067 N   0  0  0  0  0  0  0  0  0  0  0  0
   -1.2217    1.2506    0.5459 C   0  0  0  0  0  0  0  0  0  0  0  0
   -2.4042    1.7873    0.0028 C   0  0  0  0  0  0  0  0  0  0  0  0
   -2.9694    2.9600    0.5142 C   0  0  0  0  0  0  0  0  0  0  0  0
   -2.3532    3.6174    1.5747 C   0  0  0  0  0  0  0  0  0  0  0  0
   -1.1768    3.1171    2.1240 C   0  0  0  0  0  0  0  0  0  0  0  0
   -0.6143    1.9447    1.6090 C   0  0  0  0  0  0  0  0  0  0  0  0
   -3.1139    5.2028    2.2668 Br  0  0  0  0  0  0  0  0  0  0  0  0
   -1.4270   -1.0368   -0.5093 C   0  0  0  0  0  0  0  0  0  0  0  0
   -2.6634   -1.3740    0.0727 C   0  0  0  0  0  0  0  0  0  0  0  0
   -3.4285   -2.4376   -0.4167 C   0  0  0  0  0  0  0  0  0  0  0  0
   -2.9621   -3.1849   -1.4939 C   0  0  0  0  0  0  0  0  0  0  0  0
   -1.7378   -2.8825   -2.0818 C   0  0  0  0  0  0  0  0  0  0  0  0
   -0.9752   -1.8188   -1.5888 C   0  0  0  0  0  0  0  0  0  0  0  0
   -3.9932   -4.6233   -2.1562 Br  0  0  0  0  0  0  0  0  0  0  0  0
    0.9588    1.7820   -1.7768 C   0  0  0  0  0  0  0  0  0  0  0  0
    5.5493    0.2574    0.6853 H   0  0  0  0  0  0  0  0  0  0  0  0
    5.4513   -1.4372    0.1459 H   0  0  0  0  0  0  0  0  0  0  0  0
    5.5393   -0.1449   -1.0497 H   0  0  0  0  0  0  0  0  0  0  0  0
    3.5825    1.2889   -1.5069 H   0  0  0  0  0  0  0  0  0  0  0  0
    3.3686   -1.8557    1.4032 H   0  0  0  0  0  0  0  0  0  0  0  0
   -0.0911   -1.3697    2.2645 H   0  0  0  0  0  0  0  0  0  0  0  0
    0.2862   -2.7621    1.2059 H   0  0  0  0  0  0  0  0  0  0  0  0
    1.3643   -2.3108    2.5363 H   0  0  0  0  0  0  0  0  0  0  0  0
   -2.8845    1.3081   -0.8472 H   0  0  0  0  0  0  0  0  0  0  0  0
   -3.8815    3.3513    0.0717 H   0  0  0  0  0  0  0  0  0  0  0  0
   -0.6868    3.6266    2.9493 H   0  0  0  0  0  0  0  0  0  0  0  0
    0.3029    1.5696    2.0573 H   0  0  0  0  0  0  0  0  0  0  0  0
   -3.0317   -0.8244    0.9359 H   0  0  0  0  0  0  0  0  0  0  0  0
   -4.3778   -2.6754    0.0558 H   0  0  0  0  0  0  0  0  0  0  0  0
   -1.3641   -3.4637   -2.9206 H   0  0  0  0  0  0  0  0  0  0  0  0
   -0.0238   -1.5977   -2.0672 H   0  0  0  0  0  0  0  0  0  0  0  0
    0.0619    1.3834   -2.2610 H   0  0  0  0  0  0  0  0  0  0  0  0
    1.6445    2.0688   -2.5818 H   0  0  0  0  0  0  0  0  0  0  0  0
    0.7040    2.6843   -1.2133 H   0  0  0  0  0  0  0  0  0  0  0  0
  1  2  1  0
  2  3  2  0
  3  4  1  0
  4  5  2  0
  5  6  1  0
  6  7  2  0
  6  8  1  0
  5  9  1  0
  9 10  1  0
 10 11  2  0
 11 12  1  0
 12 13  2  0
 13 14  1  0
 14 15  2  0
 13 16  1  0
  9 17  1  0
 17 18  2  0
 18 19  1  0
 19 20  2  0
 20 21  1  0
 21 22  2  0
 20 23  1  0
  4 24  1  0
  7  2  1  0
 15 10  1  0
 22 17  1  0
  1 25  1  0
  1 26  1  0
  1 27  1  0
  3 28  1  0
  7 29  1  0
  8 30  1  0
  8 31  1  0
  8 32  1  0
 11 33  1  0
 12 34  1  0
 14 35  1  0
 15 36  1  0
 18 37  1  0
 19 38  1  0
 21 39  1  0
 22 40  1  0
 24 41  1  0
 24 42  1  0
 24 43  1  0
M  END
