
     RDKit          3D

 19 19  0  0  0  0  0  0  0  0999 V2000
   -3.4085    0.6597    0.1718 C   0  0  0  0  0  0  0  0  0  0  0  0
   -1.9444    0.8916    0.4512 C   0  0  0  0  0  0  0  0  0  0  0  0
   -1.5739    1.8763    1.0795 O   0  0  0  0  0  0  0  0  0  0  0  0
   -1.1430   -0.0897   -0.0984 N   0  0  0  0  0  0  0  0  0  0  0  0
    0.2675   -0.1988   -0.0447 C   0  0  0  0  0  0  0  0  0  0  0  0
    1.0804    0.7210    0.6255 C   0  0  0  0  0  0  0  0  0  0  0  0
    2.4686    0.5543    0.6411 C   0  0  0  0  0  0  0  0  0  0  0  0
    3.5533    1.8082    1.5527 Br  0  0  0  0  0  0  0  0  0  0  0  0
    3.0672   -0.5241   -0.0058 C   0  0  0  0  0  0  0  0  0  0  0  0
    2.2711   -1.4494   -0.6770 C   0  0  0  0  0  0  0  0  0  0  0  0
    0.8822   -1.2872   -0.6955 C   0  0  0  0  0  0  0  0  0  0  0  0
   -0.1435   -2.5897   -1.6316 Br  0  0  0  0  0  0  0  0  0  0  0  0
   -4.0065    1.1374    0.9532 H   0  0  0  0  0  0  0  0  0  0  0  0
   -3.6446   -0.4084    0.1710 H   0  0  0  0  0  0  0  0  0  0  0  0
   -3.6641    1.0928   -0.7988 H   0  0  0  0  0  0  0  0  0  0  0  0
   -1.6069   -0.8279   -0.6177 H   0  0  0  0  0  0  0  0  0  0  0  0
    0.6580    1.5756    1.1442 H   0  0  0  0  0  0  0  0  0  0  0  0
    4.1468   -0.6510    0.0081 H   0  0  0  0  0  0  0  0  0  0  0  0
    2.7405   -2.2906   -1.1810 H   0  0  0  0  0  0  0  0  0  0  0  0
  1  2  1  0
  2  3  2  0
  2  4  1  0
  4  5  1  0
  5  6  2  0
  6  7  1  0
  7  8  1  0
  7  9  2  0
  9 10  1  0
 10 11  2  0
 11 12  1  0
 11  5  1  0
  1 13  1  0
  1 14  1  0
  1 15  1  0
  4 16  1  0
  6 17  1  0
  9 18  1  0
 10 19  1  0
M  END
