
     RDKit          3D

 18 18  0  0  0  0  0  0  0  0999 V2000
    1.8410   -0.9746    2.0664 N   0  0  0  0  0  0  0  0  0  0  0  0
    0.7420   -1.6982    1.8296 C   0  0  0  0  0  0  0  0  0  0  0  0
    0.4652   -3.0704    2.7337 S   0  0  0  0  0  0  0  0  0  0  0  0
   -0.1826   -1.3066    0.9310 N   0  0  0  0  0  0  0  0  0  0  0  0
   -0.2963   -0.2435   -0.0005 C   0  0  0  0  0  0  0  0  0  0  0  0
    0.7296    0.6288   -0.3849 C   0  0  0  0  0  0  0  0  0  0  0  0
    1.9801    0.5010    0.0774 F   0  0  0  0  0  0  0  0  0  0  0  0
    0.5190    1.6524   -1.3118 C   0  0  0  0  0  0  0  0  0  0  0  0
   -0.7339    1.8171   -1.8868 C   0  0  0  0  0  0  0  0  0  0  0  0
   -1.0187    3.1996   -3.1418 Br  0  0  0  0  0  0  0  0  0  0  0  0
   -1.7751    0.9614   -1.5497 C   0  0  0  0  0  0  0  0  0  0  0  0
   -1.5526   -0.0608   -0.6191 C   0  0  0  0  0  0  0  0  0  0  0  0
   -3.0337   -1.1924   -0.2135 Br  0  0  0  0  0  0  0  0  0  0  0  0
    2.5278   -1.3666    2.6989 H   0  0  0  0  0  0  0  0  0  0  0  0
    2.2033   -0.3359    1.3728 H   0  0  0  0  0  0  0  0  0  0  0  0
   -1.0100   -1.8978    0.9816 H   0  0  0  0  0  0  0  0  0  0  0  0
    1.3494    2.3006   -1.5771 H   0  0  0  0  0  0  0  0  0  0  0  0
   -2.7543    1.0861   -2.0062 H   0  0  0  0  0  0  0  0  0  0  0  0
  1  2  1  0
  2  3  2  0
  2  4  1  0
  4  5  1  0
  5  6  2  0
  6  7  1  0
  6  8  1  0
  8  9  2  0
  9 10  1  0
  9 11  1  0
 11 12  2  0
 12 13  1  0
 12  5  1  0
  1 14  1  0
  1 15  1  0
  4 16  1  0
  8 17  1  0
 11 18  1  0
M  END
