
     RDKit          3D

 18 18  0  0  0  0  0  0  0  0999 V2000
    3.5465    0.3972    0.1284 N   0  0  0  0  0  0  0  0  0  0  0  0
    2.2766    0.5186    0.6208 C   0  0  0  0  0  0  0  0  0  0  0  0
    2.0474    1.3651    2.0321 S   0  0  0  0  0  0  0  0  0  0  0  0
    1.3759   -0.1937   -0.1349 N   0  0  0  0  0  0  0  0  0  0  0  0
   -0.0411   -0.1620   -0.0775 C   0  0  0  0  0  0  0  0  0  0  0  0
   -0.7708    1.0226    0.0900 C   0  0  0  0  0  0  0  0  0  0  0  0
   -0.1563    2.2139    0.1178 F   0  0  0  0  0  0  0  0  0  0  0  0
   -2.1641    1.0218    0.1307 C   0  0  0  0  0  0  0  0  0  0  0  0
   -2.8520   -0.1759   -0.0246 C   0  0  0  0  0  0  0  0  0  0  0  0
   -4.7410   -0.1858    0.0243 Br  0  0  0  0  0  0  0  0  0  0  0  0
   -2.1597   -1.3649   -0.2403 C   0  0  0  0  0  0  0  0  0  0  0  0
   -0.7611   -1.3520   -0.2793 C   0  0  0  0  0  0  0  0  0  0  0  0
    0.1272   -3.0066   -0.5870 Br  0  0  0  0  0  0  0  0  0  0  0  0
    3.6561    0.3185   -0.8744 H   0  0  0  0  0  0  0  0  0  0  0  0
    4.2409    0.9793    0.5854 H   0  0  0  0  0  0  0  0  0  0  0  0
    1.7673   -1.0642   -0.4799 H   0  0  0  0  0  0  0  0  0  0  0  0
   -2.6875    1.9639    0.2625 H   0  0  0  0  0  0  0  0  0  0  0  0
   -2.7046   -2.2958   -0.3782 H   0  0  0  0  0  0  0  0  0  0  0  0
  1  2  1  0
  2  3  2  0
  2  4  1  0
  4  5  1  0
  5  6  2  0
  6  7  1  0
  6  8  1  0
  8  9  2  0
  9 10  1  0
  9 11  1  0
 11 12  2  0
 12 13  1  0
 12  5  1  0
  1 14  1  0
  1 15  1  0
  4 16  1  0
  8 17  1  0
 11 18  1  0
M  END
