
     RDKit          3D

 24 24  0  0  0  0  0  0  0  0999 V2000
    2.6749   -0.1143    1.3085 C   0  0  0  0  0  0  0  0  0  0  0  0
    1.7457    0.4270   -0.1089 S   0  0  0  0  0  0  0  0  0  0  0  0
    2.9854    0.3689   -1.3848 C   0  0  0  0  0  0  0  0  0  0  0  0
    1.4117    1.8223    0.1030 O   0  0  0  0  0  0  0  0  0  0  0  0
    0.6968   -0.6684   -0.4362 N   0  0  0  0  0  0  0  0  0  0  0  0
   -0.7433   -0.3177   -0.3847 C   0  0  0  0  0  0  0  0  0  0  0  0
   -1.3873    0.3156   -1.4644 C   0  0  0  0  0  0  0  0  0  0  0  0
   -0.4917    0.7232   -3.0941 Br  0  0  0  0  0  0  0  0  0  0  0  0
   -2.7492    0.6543   -1.3988 C   0  0  0  0  0  0  0  0  0  0  0  0
   -3.4908    0.3514   -0.2581 C   0  0  0  0  0  0  0  0  0  0  0  0
   -5.3225    0.8054   -0.1808 Br  0  0  0  0  0  0  0  0  0  0  0  0
   -2.8946   -0.2942    0.8163 C   0  0  0  0  0  0  0  0  0  0  0  0
   -1.5330   -0.6167    0.7283 C   0  0  0  0  0  0  0  0  0  0  0  0
   -0.9560   -1.3209    1.8388 N   0  0  0  0  0  4  0  0  0  0  0  0
   -1.1507   -2.5424    1.8916 O   0  0  0  0  0  0  0  0  0  0  0  0
   -0.3822   -0.6402    2.6992 O   0  0  0  0  0  1  0  0  0  0  0  0
    3.5739    0.5006    1.3902 H   0  0  0  0  0  0  0  0  0  0  0  0
    2.9455   -1.1643    1.1822 H   0  0  0  0  0  0  0  0  0  0  0  0
    2.0670    0.0217    2.2028 H   0  0  0  0  0  0  0  0  0  0  0  0
    2.5589    0.7569   -2.3106 H   0  0  0  0  0  0  0  0  0  0  0  0
    3.8260    0.9971   -1.0824 H   0  0  0  0  0  0  0  0  0  0  0  0
    3.3133   -0.6637   -1.5192 H   0  0  0  0  0  0  0  0  0  0  0  0
   -3.2288    1.1481   -2.2418 H   0  0  0  0  0  0  0  0  0  0  0  0
   -3.4689   -0.5498    1.7040 H   0  0  0  0  0  0  0  0  0  0  0  0
  1  2  1  0
  2  3  1  0
  2  4  2  0
  2  5  2  0
  5  6  1  0
  6  7  2  0
  7  8  1  0
  7  9  1  0
  9 10  2  0
 10 11  1  0
 10 12  1  0
 12 13  2  0
 13 14  1  0
 14 15  2  0
 14 16  1  0
 13  6  1  0
  1 17  1  0
  1 18  1  0
  1 19  1  0
  3 20  1  0
  3 21  1  0
  3 22  1  0
  9 23  1  0
 12 24  1  0
M  CHG  2  14   1  16  -1
M  END
