
     RDKit          3D

 21 21  0  0  0  0  0  0  0  0999 V2000
   -3.8060   -1.1220   -0.0755 C   0  0  0  0  0  0  0  0  0  0  0  0
   -2.3127   -1.2685    0.0774 C   0  0  0  0  0  0  0  0  0  0  0  0
   -1.8165   -2.3349    0.4205 O   0  0  0  0  0  0  0  0  0  0  0  0
   -1.6332   -0.1074   -0.2374 N   0  0  0  0  0  0  0  0  0  0  0  0
   -0.2366    0.1218   -0.2128 C   0  0  0  0  0  0  0  0  0  0  0  0
    0.6921   -0.8561    0.1734 C   0  0  0  0  0  0  0  0  0  0  0  0
    2.0665   -0.5812    0.1827 C   0  0  0  0  0  0  0  0  0  0  0  0
    3.2468   -1.9760    0.6945 Br  0  0  0  0  0  0  0  0  0  0  0  0
    2.5008    0.6868   -0.1971 C   0  0  0  0  0  0  0  0  0  0  0  0
    3.9053    1.0176   -0.1978 N   0  0  0  0  0  4  0  0  0  0  0  0
    4.4659    1.0612   -1.2998 O   0  0  0  0  0  0  0  0  0  0  0  0
    4.4210    1.2790    0.8956 O   0  0  0  0  0  1  0  0  0  0  0  0
    1.6050    1.6838   -0.5910 C   0  0  0  0  0  0  0  0  0  0  0  0
    0.2401    1.3935   -0.5945 C   0  0  0  0  0  0  0  0  0  0  0  0
   -0.9510    2.7766   -1.1334 Br  0  0  0  0  0  0  0  0  0  0  0  0
   -4.0848   -1.3276   -1.1123 H   0  0  0  0  0  0  0  0  0  0  0  0
   -4.1330   -0.1151    0.1999 H   0  0  0  0  0  0  0  0  0  0  0  0
   -4.3093   -1.8334    0.5855 H   0  0  0  0  0  0  0  0  0  0  0  0
   -2.1939    0.6851   -0.5353 H   0  0  0  0  0  0  0  0  0  0  0  0
    0.3657   -1.8487    0.4721 H   0  0  0  0  0  0  0  0  0  0  0  0
    1.9678    2.6655   -0.8879 H   0  0  0  0  0  0  0  0  0  0  0  0
  1  2  1  0
  2  3  2  0
  2  4  1  0
  4  5  1  0
  5  6  2  0
  6  7  1  0
  7  8  1  0
  7  9  2  0
  9 10  1  0
 10 11  2  0
 10 12  1  0
  9 13  1  0
 13 14  2  0
 14 15  1  0
 14  5  1  0
  1 16  1  0
  1 17  1  0
  1 18  1  0
  4 19  1  0
  6 20  1  0
 13 21  1  0
M  CHG  2  10   1  12  -1
M  END
