
     RDKit          3D

 21 21  0  0  0  0  0  0  0  0999 V2000
   -3.9295   -0.3156   -0.1341 C   0  0  0  0  0  0  0  0  0  0  0  0
   -2.4732   -0.4135   -0.5079 C   0  0  0  0  0  0  0  0  0  0  0  0
   -2.1225   -0.7896   -1.6209 O   0  0  0  0  0  0  0  0  0  0  0  0
   -1.6286    0.0372    0.4953 N   0  0  0  0  0  0  0  0  0  0  0  0
   -0.2180    0.0148    0.3838 C   0  0  0  0  0  0  0  0  0  0  0  0
    0.4534    1.1924    0.7571 C   0  0  0  0  0  0  0  0  0  0  0  0
    1.8447    1.2937    0.6442 C   0  0  0  0  0  0  0  0  0  0  0  0
    2.6549    2.9257    1.1715 Br  0  0  0  0  0  0  0  0  0  0  0  0
    2.5591    0.1946    0.1739 C   0  0  0  0  0  0  0  0  0  0  0  0
    3.9957    0.2486    0.0404 N   0  0  0  0  0  4  0  0  0  0  0  0
    4.4492    0.9005   -0.9077 O   0  0  0  0  0  0  0  0  0  0  0  0
    4.6559   -0.3915    0.8685 O   0  0  0  0  0  1  0  0  0  0  0  0
    1.9255   -1.0094   -0.1480 C   0  0  0  0  0  0  0  0  0  0  0  0
    0.5350   -1.1038   -0.0272 C   0  0  0  0  0  0  0  0  0  0  0  0
   -0.2001   -2.8477   -0.2356 Br  0  0  0  0  0  0  0  0  0  0  0  0
   -4.0611   -0.3105    0.9518 H   0  0  0  0  0  0  0  0  0  0  0  0
   -4.4626   -1.1812   -0.5372 H   0  0  0  0  0  0  0  0  0  0  0  0
   -4.3473    0.6037   -0.5524 H   0  0  0  0  0  0  0  0  0  0  0  0
   -2.0285    0.7696    1.0704 H   0  0  0  0  0  0  0  0  0  0  0  0
   -0.1146    2.0526    1.1067 H   0  0  0  0  0  0  0  0  0  0  0  0
    2.5126   -1.8706   -0.4621 H   0  0  0  0  0  0  0  0  0  0  0  0
  1  2  1  0
  2  3  2  0
  2  4  1  0
  4  5  1  0
  5  6  2  0
  6  7  1  0
  7  8  1  0
  7  9  2  0
  9 10  1  0
 10 11  2  0
 10 12  1  0
  9 13  1  0
 13 14  2  0
 14 15  1  0
 14  5  1  0
  1 16  1  0
  1 17  1  0
  1 18  1  0
  4 19  1  0
  6 20  1  0
 13 21  1  0
M  CHG  2  10   1  12  -1
M  END
