
     RDKit          3D

 26 27  0  0  0  0  0  0  0  0999 V2000
   -0.0265    0.5298   -1.7899 O   0  0  0  0  0  0  0  0  0  0  0  0
    0.3723    0.2092   -0.6772 C   0  0  0  0  0  0  0  0  0  0  0  0
   -0.4047   -0.0261    0.4405 N   0  0  0  0  0  0  0  0  0  0  0  0
   -1.8174   -0.0219    0.5369 C   0  0  0  0  0  0  0  0  0  0  0  0
   -2.6582    0.1458   -0.5678 C   0  0  0  0  0  0  0  0  0  0  0  0
   -4.0465    0.1357   -0.4042 C   0  0  0  0  0  0  0  0  0  0  0  0
   -5.1699    0.3647   -1.9094 Br  0  0  0  0  0  0  0  0  0  0  0  0
   -4.6176   -0.0431    0.8536 C   0  0  0  0  0  0  0  0  0  0  0  0
   -3.7932   -0.2164    1.9632 C   0  0  0  0  0  0  0  0  0  0  0  0
   -2.4039   -0.2072    1.8046 C   0  0  0  0  0  0  0  0  0  0  0  0
   -1.3374   -0.4551    3.3623 Br  0  0  0  0  0  0  0  0  0  0  0  0
    1.8421    0.0913   -0.4551 C   0  0  0  0  0  0  0  0  0  0  0  0
    2.6950    0.9393   -1.1726 C   0  0  0  0  0  0  0  0  0  0  0  0
    4.0766    0.8611   -0.9908 C   0  0  0  0  0  0  0  0  0  0  0  0
    4.6107   -0.0703   -0.1008 C   0  0  0  0  0  0  0  0  0  0  0  0
    3.7673   -0.9309    0.6022 C   0  0  0  0  0  0  0  0  0  0  0  0
    2.3839   -0.8561    0.4245 C   0  0  0  0  0  0  0  0  0  0  0  0
    0.0764   -0.1482    1.3246 H   0  0  0  0  0  0  0  0  0  0  0  0
   -2.2563    0.2821   -1.5668 H   0  0  0  0  0  0  0  0  0  0  0  0
   -5.6975   -0.0503    0.9777 H   0  0  0  0  0  0  0  0  0  0  0  0
   -4.2411   -0.3578    2.9437 H   0  0  0  0  0  0  0  0  0  0  0  0
    2.2833    1.6631   -1.8734 H   0  0  0  0  0  0  0  0  0  0  0  0
    4.7351    1.5235   -1.5474 H   0  0  0  0  0  0  0  0  0  0  0  0
    5.6878   -0.1330    0.0361 H   0  0  0  0  0  0  0  0  0  0  0  0
    4.1903   -1.6681    1.2806 H   0  0  0  0  0  0  0  0  0  0  0  0
    1.7495   -1.5613    0.9542 H   0  0  0  0  0  0  0  0  0  0  0  0
  1  2  2  0
  2  3  1  0
  3  4  1  0
  4  5  2  0
  5  6  1  0
  6  7  1  0
  6  8  2  0
  8  9  1  0
  9 10  2  0
 10 11  1  0
  2 12  1  0
 12 13  2  0
 13 14  1  0
 14 15  2  0
 15 16  1  0
 16 17  2  0
 10  4  1  0
 17 12  1  0
  3 18  1  0
  5 19  1  0
  8 20  1  0
  9 21  1  0
 13 22  1  0
 14 23  1  0
 15 24  1  0
 16 25  1  0
 17 26  1  0
M  END
