
     RDKit          3D

 20 20  0  0  0  0  0  0  0  0999 V2000
    3.3907    0.6150    0.4298 C   0  0  0  0  0  0  0  0  0  0  0  0
    1.9534    0.2887    0.7392 C   0  0  0  0  0  0  0  0  0  0  0  0
    1.5755    0.0582    1.8823 O   0  0  0  0  0  0  0  0  0  0  0  0
    1.1585    0.2057   -0.3909 N   0  0  0  0  0  0  0  0  0  0  0  0
   -0.2312   -0.0906   -0.3531 C   0  0  0  0  0  0  0  0  0  0  0  0
   -0.7404   -0.9862   -1.3157 C   0  0  0  0  0  0  0  0  0  0  0  0
    0.3879   -1.7663   -2.6373 Br  0  0  0  0  0  0  0  0  0  0  0  0
   -2.0867   -1.3594   -1.3198 C   0  0  0  0  0  0  0  0  0  0  0  0
   -2.9472   -0.8212   -0.3704 C   0  0  0  0  0  0  0  0  0  0  0  0
   -4.7699   -1.3200   -0.3671 Br  0  0  0  0  0  0  0  0  0  0  0  0
   -2.4823    0.1048    0.5597 C   0  0  0  0  0  0  0  0  0  0  0  0
   -1.1301    0.4903    0.5648 C   0  0  0  0  0  0  0  0  0  0  0  0
   -0.7720    1.5824    1.4289 C   0  0  0  0  0  0  0  0  0  0  0  0
   -0.5558    2.5138    2.0880 N   0  0  0  0  0  0  0  0  0  0  0  0
    3.7774    1.2937    1.1950 H   0  0  0  0  0  0  0  0  0  0  0  0
    3.4856    1.1077   -0.5422 H   0  0  0  0  0  0  0  0  0  0  0  0
    3.9757   -0.3083    0.4241 H   0  0  0  0  0  0  0  0  0  0  0  0
    1.6465   -0.0956   -1.2297 H   0  0  0  0  0  0  0  0  0  0  0  0
   -2.4600   -2.0676   -2.0557 H   0  0  0  0  0  0  0  0  0  0  0  0
   -3.1758    0.5547    1.2699 H   0  0  0  0  0  0  0  0  0  0  0  0
  1  2  1  0
  2  3  2  0
  2  4  1  0
  4  5  1  0
  5  6  2  0
  6  7  1  0
  6  8  1  0
  8  9  2  0
  9 10  1  0
  9 11  1  0
 11 12  2  0
 12 13  1  0
 13 14  3  0
 12  5  1  0
  1 15  1  0
  1 16  1  0
  1 17  1  0
  4 18  1  0
  8 19  1  0
 11 20  1  0
M  END
