
     RDKit          3D

 22 22  0  0  0  0  0  0  0  0999 V2000
    4.0144    0.2239    0.3012 C   0  0  0  0  0  0  0  0  0  0  0  0
    2.7987   -0.2079   -0.5028 C   0  0  0  0  0  0  0  0  0  0  0  0
    2.8135   -1.9869   -0.7053 Cl  0  0  0  0  0  0  0  0  0  0  0  0
    1.4781    0.2209    0.1497 C   0  0  0  0  0  0  0  0  0  0  0  0
    1.4503    1.0161    1.0853 O   0  0  0  0  0  0  0  0  0  0  0  0
    0.3658   -0.3168   -0.4796 N   0  0  0  0  0  0  0  0  0  0  0  0
   -1.0010   -0.0968   -0.1951 C   0  0  0  0  0  0  0  0  0  0  0  0
   -1.4443    0.8207    0.7618 C   0  0  0  0  0  0  0  0  0  0  0  0
   -2.8123    0.9995    0.9997 C   0  0  0  0  0  0  0  0  0  0  0  0
   -3.7475    0.2620    0.2793 C   0  0  0  0  0  0  0  0  0  0  0  0
   -5.5922    0.5097    0.6060 Br  0  0  0  0  0  0  0  0  0  0  0  0
   -3.3322   -0.6550   -0.6806 C   0  0  0  0  0  0  0  0  0  0  0  0
   -1.9652   -0.8303   -0.9147 C   0  0  0  0  0  0  0  0  0  0  0  0
   -1.4548   -2.0968   -2.2421 Br  0  0  0  0  0  0  0  0  0  0  0  0
    4.0448    1.3144    0.4018 H   0  0  0  0  0  0  0  0  0  0  0  0
    4.9431   -0.0910   -0.1864 H   0  0  0  0  0  0  0  0  0  0  0  0
    3.9977   -0.1979    1.3125 H   0  0  0  0  0  0  0  0  0  0  0  0
    2.8409    0.2343   -1.5039 H   0  0  0  0  0  0  0  0  0  0  0  0
    0.5502   -1.0325   -1.1791 H   0  0  0  0  0  0  0  0  0  0  0  0
   -0.7520    1.4201    1.3452 H   0  0  0  0  0  0  0  0  0  0  0  0
   -3.1308    1.7187    1.7509 H   0  0  0  0  0  0  0  0  0  0  0  0
   -4.0652   -1.2285   -1.2416 H   0  0  0  0  0  0  0  0  0  0  0  0
  1  2  1  0
  2  3  1  0
  2  4  1  0
  4  5  2  0
  4  6  1  0
  6  7  1  0
  7  8  2  0
  8  9  1  0
  9 10  2  0
 10 11  1  0
 10 12  1  0
 12 13  2  0
 13 14  1  0
 13  7  1  0
  1 15  1  0
  1 16  1  0
  1 17  1  0
  2 18  1  0
  6 19  1  0
  8 20  1  0
  9 21  1  0
 12 22  1  0
M  END
