
     RDKit          3D

 19 19  0  0  0  0  0  0  0  0999 V2000
    2.8156   -0.8748   -1.9739 C   0  0  0  0  0  0  0  0  0  0  0  0
    1.9954   -0.8049   -0.6959 C   0  0  0  0  0  0  0  0  0  0  0  0
    2.6336   -1.5062    0.6818 S   0  0  0  0  0  0  0  0  0  0  0  0
    0.8193   -0.0919   -0.8634 N   0  0  0  0  0  0  0  0  0  0  0  0
   -0.2933    0.1564   -0.0160 C   0  0  0  0  0  0  0  0  0  0  0  0
   -0.5544   -0.5359    1.1684 C   0  0  0  0  0  0  0  0  0  0  0  0
   -1.6847   -0.2309    1.9359 C   0  0  0  0  0  0  0  0  0  0  0  0
   -2.0135   -1.1851    3.5369 Br  0  0  0  0  0  0  0  0  0  0  0  0
   -2.5791    0.7572    1.5351 C   0  0  0  0  0  0  0  0  0  0  0  0
   -2.3488    1.4441    0.3470 C   0  0  0  0  0  0  0  0  0  0  0  0
   -1.2203    1.1414   -0.4225 C   0  0  0  0  0  0  0  0  0  0  0  0
   -0.9789    2.1224   -2.0385 Br  0  0  0  0  0  0  0  0  0  0  0  0
    2.2274   -0.5837   -2.8497 H   0  0  0  0  0  0  0  0  0  0  0  0
    3.6721   -0.1968   -1.8951 H   0  0  0  0  0  0  0  0  0  0  0  0
    3.1830   -1.8927   -2.1416 H   0  0  0  0  0  0  0  0  0  0  0  0
    0.7525    0.4211   -1.7402 H   0  0  0  0  0  0  0  0  0  0  0  0
    0.0814   -1.3413    1.5116 H   0  0  0  0  0  0  0  0  0  0  0  0
   -3.4559    0.9912    2.1335 H   0  0  0  0  0  0  0  0  0  0  0  0
   -3.0513    2.2105    0.0289 H   0  0  0  0  0  0  0  0  0  0  0  0
  1  2  1  0
  2  3  2  0
  2  4  1  0
  4  5  1  0
  5  6  2  0
  6  7  1  0
  7  8  1  0
  7  9  2  0
  9 10  1  0
 10 11  2  0
 11 12  1  0
 11  5  1  0
  1 13  1  0
  1 14  1  0
  1 15  1  0
  4 16  1  0
  6 17  1  0
  9 18  1  0
 10 19  1  0
M  END
