
     RDKit          3D

 23 23  0  0  0  0  0  0  0  0999 V2000
    4.1875   -0.8938    0.1671 C   0  0  0  0  0  0  0  0  0  0  0  0
    3.0986    0.1328   -0.0990 C   0  0  0  0  0  0  0  0  0  0  0  0
    3.1834    0.6718   -1.8052 Cl  0  0  0  0  0  0  0  0  0  0  0  0
    1.6940   -0.4074    0.2009 C   0  0  0  0  0  0  0  0  0  0  0  0
    1.5268   -1.4403    0.8435 O   0  0  0  0  0  0  0  0  0  0  0  0
    0.6818    0.4289   -0.2526 N   0  0  0  0  0  0  0  0  0  0  0  0
   -0.7099    0.2783   -0.0827 C   0  0  0  0  0  0  0  0  0  0  0  0
   -1.5324    1.2074   -0.7327 C   0  0  0  0  0  0  0  0  0  0  0  0
   -2.9225    1.1292   -0.6107 C   0  0  0  0  0  0  0  0  0  0  0  0
   -3.9907    2.4105   -1.5135 Br  0  0  0  0  0  0  0  0  0  0  0  0
   -3.5098    0.1271    0.1623 C   0  0  0  0  0  0  0  0  0  0  0  0
   -4.8704    0.0410    0.2903 O   0  0  0  0  0  0  0  0  0  0  0  0
   -2.6936   -0.7979    0.8141 C   0  0  0  0  0  0  0  0  0  0  0  0
   -3.4310   -2.1817    1.8845 Br  0  0  0  0  0  0  0  0  0  0  0  0
   -1.3000   -0.7226    0.6931 C   0  0  0  0  0  0  0  0  0  0  0  0
    4.0461   -1.7951   -0.4400 H   0  0  0  0  0  0  0  0  0  0  0  0
    4.1807   -1.2027    1.2181 H   0  0  0  0  0  0  0  0  0  0  0  0
    5.1793   -0.4844   -0.0525 H   0  0  0  0  0  0  0  0  0  0  0  0
    3.2607    1.0158    0.5284 H   0  0  0  0  0  0  0  0  0  0  0  0
    0.9849    1.1868   -0.8573 H   0  0  0  0  0  0  0  0  0  0  0  0
   -1.0955    1.9958   -1.3408 H   0  0  0  0  0  0  0  0  0  0  0  0
   -5.2705    0.7576   -0.2342 H   0  0  0  0  0  0  0  0  0  0  0  0
   -0.6976   -1.4570    1.2188 H   0  0  0  0  0  0  0  0  0  0  0  0
  1  2  1  0
  2  3  1  0
  2  4  1  0
  4  5  2  0
  4  6  1  0
  6  7  1  0
  7  8  2  0
  8  9  1  0
  9 10  1  0
  9 11  2  0
 11 12  1  0
 11 13  1  0
 13 14  1  0
 13 15  2  0
 15  7  1  0
  1 16  1  0
  1 17  1  0
  1 18  1  0
  2 19  1  0
  6 20  1  0
  8 21  1  0
 12 22  1  0
 15 23  1  0
M  END
