
     RDKit          3D

 23 23  0  0  0  0  0  0  0  0999 V2000
    3.6944    0.2382   -0.8052 C   0  0  0  0  0  0  0  0  0  0  0  0
    3.0526    1.0414    0.3136 C   0  0  0  0  0  0  0  0  0  0  0  0
    3.3300    0.2233    1.8831 Cl  0  0  0  0  0  0  0  0  0  0  0  0
    1.5517    1.2081    0.0694 C   0  0  0  0  0  0  0  0  0  0  0  0
    1.1220    2.2400   -0.4408 O   0  0  0  0  0  0  0  0  0  0  0  0
    0.7965    0.0916    0.3940 N   0  0  0  0  0  0  0  0  0  0  0  0
   -0.5886   -0.1011    0.2167 C   0  0  0  0  0  0  0  0  0  0  0  0
   -1.1335   -1.2889    0.7210 C   0  0  0  0  0  0  0  0  0  0  0  0
   -2.4981   -1.5566    0.5814 C   0  0  0  0  0  0  0  0  0  0  0  0
   -3.1858   -3.1785    1.2842 Br  0  0  0  0  0  0  0  0  0  0  0  0
   -3.3353   -0.6462   -0.0644 C   0  0  0  0  0  0  0  0  0  0  0  0
   -4.6736   -0.8979   -0.2083 O   0  0  0  0  0  0  0  0  0  0  0  0
   -2.7954    0.5364   -0.5709 C   0  0  0  0  0  0  0  0  0  0  0  0
   -3.8805    1.8130   -1.4637 Br  0  0  0  0  0  0  0  0  0  0  0  0
   -1.4281    0.8079   -0.4319 C   0  0  0  0  0  0  0  0  0  0  0  0
    4.7753    0.1471   -0.6547 H   0  0  0  0  0  0  0  0  0  0  0  0
    3.5298    0.7271   -1.7717 H   0  0  0  0  0  0  0  0  0  0  0  0
    3.2734   -0.7710   -0.8761 H   0  0  0  0  0  0  0  0  0  0  0  0
    3.5072    2.0339    0.3910 H   0  0  0  0  0  0  0  0  0  0  0  0
    1.2957   -0.6359    0.8978 H   0  0  0  0  0  0  0  0  0  0  0  0
   -0.4989   -2.0115    1.2283 H   0  0  0  0  0  0  0  0  0  0  0  0
   -4.8673   -1.7570    0.2077 H   0  0  0  0  0  0  0  0  0  0  0  0
   -1.0433    1.7362   -0.8426 H   0  0  0  0  0  0  0  0  0  0  0  0
  1  2  1  0
  2  3  1  0
  2  4  1  0
  4  5  2  0
  4  6  1  0
  6  7  1  0
  7  8  2  0
  8  9  1  0
  9 10  1  0
  9 11  2  0
 11 12  1  0
 11 13  1  0
 13 14  1  0
 13 15  2  0
 15  7  1  0
  1 16  1  0
  1 17  1  0
  1 18  1  0
  2 19  1  0
  6 20  1  0
  8 21  1  0
 12 22  1  0
 15 23  1  0
M  END
