
     RDKit          3D

 15 15  0  0  0  0  0  0  0  0999 V2000
   -2.5370   -0.2351    1.7764 O   0  0  0  0  0  0  0  0  0  0  0  0
   -2.7553    0.0813    0.6171 C   0  0  0  0  0  0  0  0  0  0  0  0
   -1.8592    0.2459   -0.4069 N   0  0  0  0  0  0  0  0  0  0  0  0
   -0.4715    0.1074   -0.2931 C   0  0  0  0  0  0  0  0  0  0  0  0
    0.1854    1.0876   -0.9633 N   0  0  0  0  0  0  0  0  0  0  0  0
    1.5379    1.1012   -0.8888 C   0  0  0  0  0  0  0  0  0  0  0  0
    2.2765    0.1560   -0.2003 C   0  0  0  0  0  0  0  0  0  0  0  0
    4.1579    0.2468   -0.1529 Br  0  0  0  0  0  0  0  0  0  0  0  0
    1.6000   -0.8810    0.4276 C   0  0  0  0  0  0  0  0  0  0  0  0
    0.2023   -0.9246    0.3718 C   0  0  0  0  0  0  0  0  0  0  0  0
   -0.6139   -2.5121    1.0201 Br  0  0  0  0  0  0  0  0  0  0  0  0
   -3.7740    0.3480    0.2863 H   0  0  0  0  0  0  0  0  0  0  0  0
   -2.1200    0.9242   -1.1105 H   0  0  0  0  0  0  0  0  0  0  0  0
    2.0163    1.9212   -1.4174 H   0  0  0  0  0  0  0  0  0  0  0  0
    2.1547   -1.6668    0.9338 H   0  0  0  0  0  0  0  0  0  0  0  0
  1  2  2  0
  2  3  1  0
  3  4  1  0
  4  5  2  0
  5  6  1  0
  6  7  2  0
  7  8  1  0
  7  9  1  0
  9 10  2  0
 10 11  1  0
 10  4  1  0
  2 12  1  0
  3 13  1  0
  6 14  1  0
  9 15  1  0
M  END
