
     RDKit          3D

 39 40  0  0  0  0  0  0  0  0999 V2000
   -6.6674    0.0304   -0.9524 C   0  0  0  0  0  0  0  0  0  0  0  0
   -5.9416    0.2908    0.3579 C   0  0  0  0  0  0  0  0  0  0  0  0
   -4.4287    0.3785    0.1527 C   0  0  0  0  0  0  0  0  0  0  0  0
   -3.7045    0.6370    1.4758 C   0  0  0  0  0  0  0  0  0  0  0  0
   -2.1953    0.8444    1.3124 C   0  0  0  0  0  0  0  0  0  0  0  0
   -1.4640   -0.4031    0.8103 C   0  0  0  0  0  0  0  0  0  0  0  0
    0.0591   -0.2687    0.8567 C   0  0  0  0  0  0  0  0  0  0  0  0
    0.6059    0.8063   -0.0787 C   0  0  0  0  0  0  0  0  0  0  0  0
    2.0414    0.8257   -0.0125 O   0  0  0  0  0  0  0  0  0  0  0  0
    2.6960   -0.0248   -0.8568 C   0  0  0  0  0  0  0  0  0  0  0  0
    2.1265   -0.7793   -1.6360 O   0  0  0  0  0  0  0  0  0  0  0  0
    4.1389    0.0818   -0.7049 C   0  0  0  0  0  0  0  0  0  0  0  0
    5.0825   -0.6537   -1.4289 C   0  0  0  0  0  0  0  0  0  0  0  0
    6.4295   -0.3776   -1.1050 C   0  0  0  0  0  0  0  0  0  0  0  0
    7.6357   -0.8186   -1.5195 C   0  0  0  0  0  0  0  0  0  0  0  0
    8.8622   -0.0079   -0.6517 S   0  0  0  0  0  0  0  0  0  0  0  0
    7.7273    0.9081    0.2516 C   0  0  0  0  0  0  0  0  0  0  0  0
    6.4455    0.5975   -0.1059 C   0  0  0  0  0  0  0  0  0  0  0  0
    4.8461    1.2036    0.4659 S   0  0  0  0  0  0  0  0  0  0  0  0
    8.2354    2.1848    1.5747 Br  0  0  0  0  0  0  0  0  0  0  0  0
    7.9789   -2.1306   -2.8525 Br  0  0  0  0  0  0  0  0  0  0  0  0
    4.7355   -1.5540   -2.3614 F   0  0  0  0  0  0  0  0  0  0  0  0
   -6.3424   -0.9143   -1.4000 H   0  0  0  0  0  0  0  0  0  0  0  0
   -6.4794    0.8342   -1.6714 H   0  0  0  0  0  0  0  0  0  0  0  0
   -7.7471   -0.0279   -0.7826 H   0  0  0  0  0  0  0  0  0  0  0  0
   -6.1753   -0.5139    1.0648 H   0  0  0  0  0  0  0  0  0  0  0  0
   -6.3134    1.2249    0.7947 H   0  0  0  0  0  0  0  0  0  0  0  0
   -4.2005    1.1843   -0.5553 H   0  0  0  0  0  0  0  0  0  0  0  0
   -4.0733   -0.5571   -0.2936 H   0  0  0  0  0  0  0  0  0  0  0  0
   -3.8889   -0.1938    2.1678 H   0  0  0  0  0  0  0  0  0  0  0  0
   -4.1238    1.5362    1.9442 H   0  0  0  0  0  0  0  0  0  0  0  0
   -1.7830    1.1344    2.2868 H   0  0  0  0  0  0  0  0  0  0  0  0
   -2.0211    1.6846    0.6306 H   0  0  0  0  0  0  0  0  0  0  0  0
   -1.7706   -0.6338   -0.2163 H   0  0  0  0  0  0  0  0  0  0  0  0
   -1.7512   -1.2620    1.4291 H   0  0  0  0  0  0  0  0  0  0  0  0
    0.3902   -0.0619    1.8821 H   0  0  0  0  0  0  0  0  0  0  0  0
    0.5049   -1.2367    0.5967 H   0  0  0  0  0  0  0  0  0  0  0  0
    0.2707    1.7982    0.2401 H   0  0  0  0  0  0  0  0  0  0  0  0
    0.2592    0.6666   -1.1094 H   0  0  0  0  0  0  0  0  0  0  0  0
  1  2  1  0
  2  3  1  0
  3  4  1  0
  4  5  1  0
  5  6  1  0
  6  7  1  0
  7  8  1  0
  8  9  1  0
  9 10  1  0
 10 11  2  0
 10 12  1  0
 12 13  2  0
 13 14  1  0
 14 15  2  0
 15 16  1  0
 16 17  1  0
 17 18  2  0
 18 19  1  0
 17 20  1  0
 15 21  1  0
 13 22  1  0
 19 12  1  0
 18 14  1  0
  1 23  1  0
  1 24  1  0
  1 25  1  0
  2 26  1  0
  2 27  1  0
  3 28  1  0
  3 29  1  0
  4 30  1  0
  4 31  1  0
  5 32  1  0
  5 33  1  0
  6 34  1  0
  6 35  1  0
  7 36  1  0
  7 37  1  0
  8 38  1  0
  8 39  1  0
M  END
