
     RDKit          3D

148151  0  0  0  0  0  0  0  0999 V2000
  -11.7385    6.1751    0.2819 C   0  0  0  0  0  0  0  0  0  0  0  0
  -10.8097    6.6606    1.3836 C   0  0  0  0  0  0  0  0  0  0  0  0
  -10.4943    5.5913    2.4299 C   0  0  0  0  0  0  0  0  0  0  0  0
   -9.7997    4.3278    1.9056 C   0  0  0  0  0  0  0  0  0  0  0  0
   -8.4654    4.6157    1.2151 C   0  0  0  0  0  0  0  0  0  0  0  0
   -7.6139    3.3613    0.9907 C   0  0  0  0  0  0  0  0  0  0  0  0
   -8.2328    2.3656    0.0016 C   0  0  0  0  0  0  0  0  0  0  0  0
   -7.2790    1.2136   -0.3474 C   0  0  0  0  0  0  0  0  0  0  0  0
   -7.0505    0.2579    0.8227 C   0  0  0  0  0  0  0  0  0  0  0  0
   -6.1852   -0.9738    0.5078 C   0  0  0  0  0  0  0  0  0  0  0  0
   -4.6642   -0.7755    0.2426 C   0  0  0  0  0  0  0  0  0  0  0  0
   -4.3969   -0.4292   -1.2410 C   0  0  0  0  0  0  0  0  0  0  0  0
   -2.9929   -0.7088   -1.8059 C   0  0  0  0  0  0  0  0  0  0  0  0
   -2.6548   -2.1793   -2.0931 C   0  0  0  0  0  0  0  0  0  0  0  0
   -1.9482   -2.8831   -0.9353 C   0  0  0  0  0  0  0  0  0  0  0  0
   -1.4563   -4.2961   -1.2671 C   0  0  0  0  0  0  0  0  0  0  0  0
   -0.2682   -4.3111   -2.2336 C   0  0  0  0  0  0  0  0  0  0  0  0
    0.2829   -5.7162   -2.4869 C   0  0  0  0  0  0  0  0  0  0  0  0
    0.9649   -6.3277   -1.2709 C   0  0  0  0  0  0  0  0  0  0  0  0
   -4.0726    0.2419    1.2442 C   0  0  0  0  0  0  0  0  0  0  0  0
   -2.6398    0.1778    1.4363 N   0  0  0  0  0  0  0  0  0  0  0  0
   -1.9299   -0.8092    2.1215 C   0  0  0  0  0  0  0  0  0  0  0  0
   -0.6291   -0.5252    2.0915 C   0  0  0  0  0  0  0  0  0  0  0  0
   -0.4508    0.6996    1.3680 C   0  0  0  0  0  0  0  0  0  0  0  0
    0.8473    0.9920    1.3480 C   0  0  0  0  0  0  0  0  0  0  0  0
    1.5667   -0.0002    2.0134 N   0  0  0  0  0  0  0  0  0  0  0  0
    0.6945   -0.9777    2.5497 C   0  0  0  0  0  0  0  0  0  0  0  0
    0.9396   -1.9410    3.2461 O   0  0  0  0  0  0  0  0  0  0  0  0
    3.0075   -0.0840    2.1766 C   0  0  0  0  0  0  0  0  0  0  0  0
    3.7630   -0.9635    1.1370 C   0  0  0  0  0  0  0  0  0  0  0  0
    3.2590   -2.4248    1.1556 C   0  0  0  0  0  0  0  0  0  0  0  0
    4.0311   -3.4458    0.3066 C   0  0  0  0  0  0  0  0  0  0  0  0
    5.5371   -3.4604    0.5595 C   0  0  0  0  0  0  0  0  0  0  0  0
    6.2932   -4.5251   -0.2428 C   0  0  0  0  0  0  0  0  0  0  0  0
    5.9897   -5.9695    0.1705 C   0  0  0  0  0  0  0  0  0  0  0  0
    5.0398   -6.6746   -0.8029 C   0  0  0  0  0  0  0  0  0  0  0  0
    4.6542   -8.0857   -0.3510 C   0  0  0  0  0  0  0  0  0  0  0  0
    5.8259   -9.0586   -0.3421 C   0  0  0  0  0  0  0  0  0  0  0  0
    3.7635   -0.3711   -0.2885 C   0  0  0  0  0  0  0  0  0  0  0  0
    4.6157    0.8988   -0.3960 C   0  0  0  0  0  0  0  0  0  0  0  0
    4.6721    1.4130   -1.8379 C   0  0  0  0  0  0  0  0  0  0  0  0
    5.3662    2.7726   -1.9648 C   0  0  0  0  0  0  0  0  0  0  0  0
    6.8509    2.7386   -1.5911 C   0  0  0  0  0  0  0  0  0  0  0  0
    7.5637    4.0731   -1.8378 C   0  0  0  0  0  0  0  0  0  0  0  0
    7.0598    5.1956   -0.9306 C   0  0  0  0  0  0  0  0  0  0  0  0
    7.9536    6.4397   -0.9108 C   0  0  0  0  0  0  0  0  0  0  0  0
    7.9536    7.2561   -2.2070 C   0  0  0  0  0  0  0  0  0  0  0  0
    9.0671    6.8728   -3.1708 C   0  0  0  0  0  0  0  0  0  0  0  0
    1.3518    2.1792    0.7776 C   0  0  0  0  0  0  0  0  0  0  0  0
    1.9834    3.2544    1.3927 C   0  0  0  0  0  0  0  0  0  0  0  0
    2.2303    4.2366    0.4016 C   0  0  0  0  0  0  0  0  0  0  0  0
    1.7428    3.7172   -0.7701 C   0  0  0  0  0  0  0  0  0  0  0  0
    1.2264    2.4829   -0.5576 O   0  0  0  0  0  0  0  0  0  0  0  0
    1.7813    4.5856   -2.4608 Br  0  0  0  0  0  0  0  0  0  0  0  0
   -1.7765    1.1879    0.9579 C   0  0  0  0  0  0  0  0  0  0  0  0
   -2.0361    2.2145    0.3651 O   0  0  0  0  0  0  0  0  0  0  0  0
   -2.4665   -1.9471    2.7639 C   0  0  0  0  0  0  0  0  0  0  0  0
   -3.4675   -2.0515    3.7229 C   0  0  0  0  0  0  0  0  0  0  0  0
   -3.6239   -3.4215    4.0456 C   0  0  0  0  0  0  0  0  0  0  0  0
   -2.7140   -4.0938    3.2725 C   0  0  0  0  0  0  0  0  0  0  0  0
   -2.0127   -3.2217    2.5085 O   0  0  0  0  0  0  0  0  0  0  0  0
   -2.4550   -5.9764    3.2585 Br  0  0  0  0  0  0  0  0  0  0  0  0
  -12.0311    7.0130   -0.3609 H   0  0  0  0  0  0  0  0  0  0  0  0
  -12.6500    5.7313    0.7004 H   0  0  0  0  0  0  0  0  0  0  0  0
  -11.2465    5.4282   -0.3518 H   0  0  0  0  0  0  0  0  0  0  0  0
   -9.8849    7.0463    0.9413 H   0  0  0  0  0  0  0  0  0  0  0  0
  -11.2854    7.5081    1.8915 H   0  0  0  0  0  0  0  0  0  0  0  0
   -9.8622    6.0433    3.2046 H   0  0  0  0  0  0  0  0  0  0  0  0
  -11.4245    5.2923    2.9295 H   0  0  0  0  0  0  0  0  0  0  0  0
   -9.6270    3.6618    2.7611 H   0  0  0  0  0  0  0  0  0  0  0  0
  -10.4691    3.7909    1.2251 H   0  0  0  0  0  0  0  0  0  0  0  0
   -8.6373    5.1142    0.2544 H   0  0  0  0  0  0  0  0  0  0  0  0
   -7.8828    5.3118    1.8321 H   0  0  0  0  0  0  0  0  0  0  0  0
   -7.4369    2.8739    1.9553 H   0  0  0  0  0  0  0  0  0  0  0  0
   -6.6349    3.6790    0.6100 H   0  0  0  0  0  0  0  0  0  0  0  0
   -9.1691    1.9608    0.4027 H   0  0  0  0  0  0  0  0  0  0  0  0
   -8.4849    2.8953   -0.9247 H   0  0  0  0  0  0  0  0  0  0  0  0
   -7.7025    0.6532   -1.1896 H   0  0  0  0  0  0  0  0  0  0  0  0
   -6.3325    1.6414   -0.6834 H   0  0  0  0  0  0  0  0  0  0  0  0
   -6.6325    0.7981    1.6773 H   0  0  0  0  0  0  0  0  0  0  0  0
   -8.0305   -0.1092    1.1594 H   0  0  0  0  0  0  0  0  0  0  0  0
   -6.2659   -1.6353    1.3820 H   0  0  0  0  0  0  0  0  0  0  0  0
   -6.6395   -1.5348   -0.3200 H   0  0  0  0  0  0  0  0  0  0  0  0
   -4.2229   -1.7564    0.4322 H   0  0  0  0  0  0  0  0  0  0  0  0
   -5.1155   -0.9631   -1.8768 H   0  0  0  0  0  0  0  0  0  0  0  0
   -4.5924    0.6366   -1.3971 H   0  0  0  0  0  0  0  0  0  0  0  0
   -2.9550   -0.1901   -2.7743 H   0  0  0  0  0  0  0  0  0  0  0  0
   -2.2124   -0.2468   -1.2011 H   0  0  0  0  0  0  0  0  0  0  0  0
   -3.5523   -2.7328   -2.3866 H   0  0  0  0  0  0  0  0  0  0  0  0
   -1.9878   -2.1901   -2.9625 H   0  0  0  0  0  0  0  0  0  0  0  0
   -2.6421   -2.9770   -0.0989 H   0  0  0  0  0  0  0  0  0  0  0  0
   -1.1021   -2.2801   -0.5876 H   0  0  0  0  0  0  0  0  0  0  0  0
   -2.2808   -4.8930   -1.6789 H   0  0  0  0  0  0  0  0  0  0  0  0
   -1.1625   -4.7685   -0.3223 H   0  0  0  0  0  0  0  0  0  0  0  0
   -0.5765   -3.8943   -3.1997 H   0  0  0  0  0  0  0  0  0  0  0  0
    0.5328   -3.6670   -1.8493 H   0  0  0  0  0  0  0  0  0  0  0  0
   -0.5201   -6.3794   -2.8293 H   0  0  0  0  0  0  0  0  0  0  0  0
    1.0180   -5.6588   -3.2985 H   0  0  0  0  0  0  0  0  0  0  0  0
    1.4207   -7.2867   -1.5405 H   0  0  0  0  0  0  0  0  0  0  0  0
    1.7549   -5.6704   -0.8938 H   0  0  0  0  0  0  0  0  0  0  0  0
    0.2556   -6.5157   -0.4578 H   0  0  0  0  0  0  0  0  0  0  0  0
   -4.5247    0.1091    2.2339 H   0  0  0  0  0  0  0  0  0  0  0  0
   -4.3319    1.2588    0.9253 H   0  0  0  0  0  0  0  0  0  0  0  0
    3.4299    0.9239    2.2159 H   0  0  0  0  0  0  0  0  0  0  0  0
    3.1882   -0.5174    3.1697 H   0  0  0  0  0  0  0  0  0  0  0  0
    4.8038   -0.9805    1.4841 H   0  0  0  0  0  0  0  0  0  0  0  0
    3.2761   -2.7811    2.1925 H   0  0  0  0  0  0  0  0  0  0  0  0
    2.2144   -2.4589    0.8241 H   0  0  0  0  0  0  0  0  0  0  0  0
    3.8343   -3.2734   -0.7567 H   0  0  0  0  0  0  0  0  0  0  0  0
    3.6130   -4.4309    0.5396 H   0  0  0  0  0  0  0  0  0  0  0  0
    5.7349   -3.5962    1.6284 H   0  0  0  0  0  0  0  0  0  0  0  0
    5.9605   -2.4873    0.2851 H   0  0  0  0  0  0  0  0  0  0  0  0
    6.1242   -4.3781   -1.3160 H   0  0  0  0  0  0  0  0  0  0  0  0
    7.3642   -4.3495   -0.0773 H   0  0  0  0  0  0  0  0  0  0  0  0
    5.5913   -6.0070    1.1908 H   0  0  0  0  0  0  0  0  0  0  0  0
    6.9387   -6.5201    0.1831 H   0  0  0  0  0  0  0  0  0  0  0  0
    5.4990   -6.7222   -1.7970 H   0  0  0  0  0  0  0  0  0  0  0  0
    4.1204   -6.0903   -0.9104 H   0  0  0  0  0  0  0  0  0  0  0  0
    3.8879   -8.4718   -1.0336 H   0  0  0  0  0  0  0  0  0  0  0  0
    4.2037   -8.0501    0.6485 H   0  0  0  0  0  0  0  0  0  0  0  0
    6.3159   -9.0920   -1.3211 H   0  0  0  0  0  0  0  0  0  0  0  0
    6.5711   -8.7834    0.4105 H   0  0  0  0  0  0  0  0  0  0  0  0
    5.4718  -10.0682   -0.1045 H   0  0  0  0  0  0  0  0  0  0  0  0
    4.1811   -1.0995   -0.9932 H   0  0  0  0  0  0  0  0  0  0  0  0
    2.7389   -0.1744   -0.6229 H   0  0  0  0  0  0  0  0  0  0  0  0
    5.6320    0.6756   -0.0469 H   0  0  0  0  0  0  0  0  0  0  0  0
    4.2200    1.6843    0.2531 H   0  0  0  0  0  0  0  0  0  0  0  0
    3.6508    1.5111   -2.2275 H   0  0  0  0  0  0  0  0  0  0  0  0
    5.1825    0.6786   -2.4744 H   0  0  0  0  0  0  0  0  0  0  0  0
    5.2655    3.1167   -3.0011 H   0  0  0  0  0  0  0  0  0  0  0  0
    4.8426    3.5021   -1.3362 H   0  0  0  0  0  0  0  0  0  0  0  0
    7.3511    1.9621   -2.1844 H   0  0  0  0  0  0  0  0  0  0  0  0
    6.9718    2.4605   -0.5372 H   0  0  0  0  0  0  0  0  0  0  0  0
    7.4413    4.3551   -2.8906 H   0  0  0  0  0  0  0  0  0  0  0  0
    8.6367    3.9218   -1.6640 H   0  0  0  0  0  0  0  0  0  0  0  0
    6.0432    5.4866   -1.2208 H   0  0  0  0  0  0  0  0  0  0  0  0
    6.9946    4.8189    0.0991 H   0  0  0  0  0  0  0  0  0  0  0  0
    8.9766    6.1670   -0.6263 H   0  0  0  0  0  0  0  0  0  0  0  0
    7.5772    7.0902   -0.1122 H   0  0  0  0  0  0  0  0  0  0  0  0
    6.9813    7.1916   -2.7081 H   0  0  0  0  0  0  0  0  0  0  0  0
    8.0996    8.3123   -1.9445 H   0  0  0  0  0  0  0  0  0  0  0  0
    9.0557    7.5418   -4.0388 H   0  0  0  0  0  0  0  0  0  0  0  0
    8.9584    5.8507   -3.5388 H   0  0  0  0  0  0  0  0  0  0  0  0
   10.0480    6.9646   -2.6908 H   0  0  0  0  0  0  0  0  0  0  0  0
    2.2112    3.3255    2.4464 H   0  0  0  0  0  0  0  0  0  0  0  0
    2.6933    5.2045    0.5343 H   0  0  0  0  0  0  0  0  0  0  0  0
   -4.0123   -1.2235    4.1515 H   0  0  0  0  0  0  0  0  0  0  0  0
   -4.3108   -3.8566    4.7570 H   0  0  0  0  0  0  0  0  0  0  0  0
  1  2  1  0
  2  3  1  0
  3  4  1  0
  4  5  1  0
  5  6  1  0
  6  7  1  0
  7  8  1  0
  8  9  1  0
  9 10  1  0
 10 11  1  0
 11 12  1  0
 12 13  1  0
 13 14  1  0
 14 15  1  0
 15 16  1  0
 16 17  1  0
 17 18  1  0
 18 19  1  0
 11 20  1  0
 20 21  1  0
 21 22  1  0
 22 23  2  0
 23 24  1  0
 24 25  2  0
 25 26  1  0
 26 27  1  0
 27 28  2  0
 26 29  1  0
 29 30  1  0
 30 31  1  0
 31 32  1  0
 32 33  1  0
 33 34  1  0
 34 35  1  0
 35 36  1  0
 36 37  1  0
 37 38  1  0
 30 39  1  0
 39 40  1  0
 40 41  1  0
 41 42  1  0
 42 43  1  0
 43 44  1  0
 44 45  1  0
 45 46  1  0
 46 47  1  0
 47 48  1  0
 25 49  1  0
 49 50  2  0
 50 51  1  0
 51 52  2  0
 52 53  1  0
 52 54  1  0
 24 55  1  0
 55 56  2  0
 22 57  1  0
 57 58  2  0
 58 59  1  0
 59 60  2  0
 60 61  1  0
 60 62  1  0
 55 21  1  0
 27 23  1  0
 53 49  1  0
 61 57  1  0
  1 63  1  0
  1 64  1  0
  1 65  1  0
  2 66  1  0
  2 67  1  0
  3 68  1  0
  3 69  1  0
  4 70  1  0
  4 71  1  0
  5 72  1  0
  5 73  1  0
  6 74  1  0
  6 75  1  0
  7 76  1  0
  7 77  1  0
  8 78  1  0
  8 79  1  0
  9 80  1  0
  9 81  1  0
 10 82  1  0
 10 83  1  0
 11 84  1  0
 12 85  1  0
 12 86  1  0
 13 87  1  0
 13 88  1  0
 14 89  1  0
 14 90  1  0
 15 91  1  0
 15 92  1  0
 16 93  1  0
 16 94  1  0
 17 95  1  0
 17 96  1  0
 18 97  1  0
 18 98  1  0
 19 99  1  0
 19100  1  0
 19101  1  0
 20102  1  0
 20103  1  0
 29104  1  0
 29105  1  0
 30106  1  0
 31107  1  0
 31108  1  0
 32109  1  0
 32110  1  0
 33111  1  0
 33112  1  0
 34113  1  0
 34114  1  0
 35115  1  0
 35116  1  0
 36117  1  0
 36118  1  0
 37119  1  0
 37120  1  0
 38121  1  0
 38122  1  0
 38123  1  0
 39124  1  0
 39125  1  0
 40126  1  0
 40127  1  0
 41128  1  0
 41129  1  0
 42130  1  0
 42131  1  0
 43132  1  0
 43133  1  0
 44134  1  0
 44135  1  0
 45136  1  0
 45137  1  0
 46138  1  0
 46139  1  0
 47140  1  0
 47141  1  0
 48142  1  0
 48143  1  0
 48144  1  0
 50145  1  0
 51146  1  0
 58147  1  0
 59148  1  0
M  END
