
     RDKit          3D

 26 26  0  0  0  0  0  0  0  0999 V2000
   -1.8383    1.2507    1.0110 C   0  0  0  0  0  0  0  0  0  0  0  0
   -1.6197    0.0982    0.0195 C   0  0  0  0  0  0  0  0  0  0  0  0
   -2.4901    0.3413   -1.2176 C   0  0  0  0  0  0  0  0  0  0  0  0
   -1.9680   -1.2213    0.7164 C   0  0  0  0  0  0  0  0  0  0  0  0
   -0.2071    0.1608   -0.3108 O   0  0  0  0  0  0  0  0  0  0  0  0
    0.3591   -0.7251   -1.1689 C   0  0  0  0  0  0  0  0  0  0  0  0
   -0.2336   -1.6190   -1.7596 O   0  0  0  0  0  0  0  0  0  0  0  0
    1.8231   -0.4549   -1.3706 C   0  0  0  0  0  0  0  0  0  0  0  0
    2.4872   -0.0015   -0.1692 N   0  0  0  0  0  0  0  0  0  0  0  0
    3.0687    1.2149   -0.1272 N   0  0  0  0  0  0  0  0  0  0  0  0
    3.5753    1.2214    1.1107 C   0  0  0  0  0  0  0  0  0  0  0  0
    4.5152    2.6990    1.8080 Br  0  0  0  0  0  0  0  0  0  0  0  0
    3.3725    0.0744    1.8272 N   0  0  0  0  0  0  0  0  0  0  0  0
    2.6959   -0.6832    0.9956 C   0  0  0  0  0  0  0  0  0  0  0  0
    2.1316   -2.4545    1.4095 Br  0  0  0  0  0  0  0  0  0  0  0  0
   -1.1995    1.1314    1.8940 H   0  0  0  0  0  0  0  0  0  0  0  0
   -1.5633    2.2109    0.5589 H   0  0  0  0  0  0  0  0  0  0  0  0
   -2.8801    1.3102    1.3429 H   0  0  0  0  0  0  0  0  0  0  0  0
   -3.5447    0.4585   -0.9458 H   0  0  0  0  0  0  0  0  0  0  0  0
   -2.4263   -0.4856   -1.9312 H   0  0  0  0  0  0  0  0  0  0  0  0
   -2.1653    1.2419   -1.7506 H   0  0  0  0  0  0  0  0  0  0  0  0
   -1.2865   -1.4108    1.5531 H   0  0  0  0  0  0  0  0  0  0  0  0
   -1.8796   -2.0768    0.0401 H   0  0  0  0  0  0  0  0  0  0  0  0
   -2.9941   -1.2103    1.0996 H   0  0  0  0  0  0  0  0  0  0  0  0
    1.9406    0.3034   -2.1510 H   0  0  0  0  0  0  0  0  0  0  0  0
    2.3270   -1.3741   -1.6865 H   0  0  0  0  0  0  0  0  0  0  0  0
  1  2  1  0
  2  3  1  0
  2  4  1  0
  2  5  1  0
  5  6  1  0
  6  7  2  0
  6  8  1  0
  8  9  1  0
  9 10  1  0
 10 11  2  0
 11 12  1  0
 11 13  1  0
 13 14  2  0
 14 15  1  0
 14  9  1  0
  1 16  1  0
  1 17  1  0
  1 18  1  0
  3 19  1  0
  3 20  1  0
  3 21  1  0
  4 22  1  0
  4 23  1  0
  4 24  1  0
  8 25  1  0
  8 26  1  0
M  END
