
     RDKit          3D

 26 26  0  0  0  0  0  0  0  0999 V2000
   -2.4582    0.7326   -1.4533 C   0  0  0  0  0  0  0  0  0  0  0  0
   -2.2549   -0.2357   -0.2828 C   0  0  0  0  0  0  0  0  0  0  0  0
   -3.0376   -1.5257   -0.5737 C   0  0  0  0  0  0  0  0  0  0  0  0
   -2.7555    0.3501    1.0422 C   0  0  0  0  0  0  0  0  0  0  0  0
   -0.8703   -0.6625   -0.1832 O   0  0  0  0  0  0  0  0  0  0  0  0
    0.1209    0.2325    0.0721 C   0  0  0  0  0  0  0  0  0  0  0  0
   -0.0568    1.4273    0.2340 O   0  0  0  0  0  0  0  0  0  0  0  0
    1.2955   -0.4670    0.1048 N   0  0  0  0  0  0  0  0  0  0  0  0
    2.5652    0.0194    0.3306 C   0  0  0  0  0  0  0  0  0  0  0  0
    3.7230   -0.7310    0.3535 C   0  0  0  0  0  0  0  0  0  0  0  0
    4.8658    0.0749    0.6132 C   0  0  0  0  0  0  0  0  0  0  0  0
    6.5874   -0.6973    0.6999 Br  0  0  0  0  0  0  0  0  0  0  0  0
    4.5413    1.3957    0.7770 C   0  0  0  0  0  0  0  0  0  0  0  0
    5.7705    2.8159    1.1411 Br  0  0  0  0  0  0  0  0  0  0  0  0
    2.8721    1.6669    0.6197 S   0  0  0  0  0  0  0  0  0  0  0  0
   -1.9825    1.7009   -1.2717 H   0  0  0  0  0  0  0  0  0  0  0  0
   -2.0138    0.3315   -2.3712 H   0  0  0  0  0  0  0  0  0  0  0  0
   -3.5221    0.9205   -1.6345 H   0  0  0  0  0  0  0  0  0  0  0  0
   -2.6824   -1.9970   -1.4977 H   0  0  0  0  0  0  0  0  0  0  0  0
   -2.8877   -2.2612    0.2254 H   0  0  0  0  0  0  0  0  0  0  0  0
   -4.1118   -1.3369   -0.6728 H   0  0  0  0  0  0  0  0  0  0  0  0
   -3.8385    0.5133    1.0214 H   0  0  0  0  0  0  0  0  0  0  0  0
   -2.2852    1.3115    1.2691 H   0  0  0  0  0  0  0  0  0  0  0  0
   -2.5199   -0.3196    1.8769 H   0  0  0  0  0  0  0  0  0  0  0  0
    1.1875   -1.4575   -0.0599 H   0  0  0  0  0  0  0  0  0  0  0  0
    3.7483   -1.8015    0.1924 H   0  0  0  0  0  0  0  0  0  0  0  0
  1  2  1  0
  2  3  1  0
  2  4  1  0
  2  5  1  0
  5  6  1  0
  6  7  2  0
  6  8  1  0
  8  9  1  0
  9 10  2  0
 10 11  1  0
 11 12  1  0
 11 13  2  0
 13 14  1  0
 13 15  1  0
 15  9  1  0
  1 16  1  0
  1 17  1  0
  1 18  1  0
  3 19  1  0
  3 20  1  0
  3 21  1  0
  4 22  1  0
  4 23  1  0
  4 24  1  0
  8 25  1  0
 10 26  1  0
M  END
