
     RDKit          3D

 16 17  0  0  0  0  0  0  0  0999 V2000
   -2.3367    2.3291   -0.1427 O   0  0  0  0  0  0  0  0  0  0  0  0
   -1.9212    1.1901   -0.1001 C   0  0  0  0  0  0  0  0  0  0  0  0
   -2.7106    0.0917   -0.1035 O   0  0  0  0  0  0  0  0  0  0  0  0
   -1.9433   -1.3293   -0.0411 S   0  0  0  0  0  0  0  0  0  0  0  0
   -2.0959   -2.0023   -1.3097 O   0  0  0  0  0  0  0  0  0  0  0  0
   -2.1914   -1.9417    1.2431 O   0  0  0  0  0  0  0  0  0  0  0  0
   -0.3627   -0.6312    0.0014 C   0  0  0  0  0  0  0  0  0  0  0  0
    0.8496   -1.2946    0.0625 C   0  0  0  0  0  0  0  0  0  0  0  0
    0.8886   -3.1953    0.1091 Br  0  0  0  0  0  0  0  0  0  0  0  0
    2.0141   -0.5061    0.0873 C   0  0  0  0  0  0  0  0  0  0  0  0
    3.7305   -1.3611    0.1718 Br  0  0  0  0  0  0  0  0  0  0  0  0
    1.9159    0.9147    0.0499 C   0  0  0  0  0  0  0  0  0  0  0  0
    3.5137    1.9838    0.0842 Br  0  0  0  0  0  0  0  0  0  0  0  0
    0.6489    1.5495   -0.0125 C   0  0  0  0  0  0  0  0  0  0  0  0
    0.4953    3.4502   -0.0634 Br  0  0  0  0  0  0  0  0  0  0  0  0
   -0.4949    0.7525   -0.0364 C   0  0  0  0  0  0  0  0  0  0  0  0
  1  2  2  0
  2  3  1  0
  3  4  1  0
  4  5  2  0
  4  6  2  0
  4  7  1  0
  7  8  2  0
  8  9  1  0
  8 10  1  0
 10 11  1  0
 10 12  2  0
 12 13  1  0
 12 14  1  0
 14 15  1  0
 14 16  2  0
 16  2  1  0
 16  7  1  0
M  END
