
     RDKit          3D

 33 34  0  0  0  0  0  0  0  0999 V2000
   -0.3478   -1.7213   -1.7790 C   0  0  0  0  0  0  0  0  0  0  0  0
   -0.2557   -1.1624   -0.3347 C   0  0  0  0  0  0  0  0  0  0  0  0
   -0.5505   -2.3625    0.6033 C   0  0  0  0  0  0  0  0  0  0  0  0
   -1.3177   -0.0826   -0.0126 C   0  0  0  0  0  0  0  0  0  0  0  0
   -2.3453    0.2680   -0.9061 C   0  0  0  0  0  0  0  0  0  0  0  0
   -3.2864    1.2537   -0.5771 C   0  0  0  0  0  0  0  0  0  0  0  0
   -4.6355    1.6640   -1.8480 Br  0  0  0  0  0  0  0  0  0  0  0  0
   -3.2230    1.9085    0.6520 C   0  0  0  0  0  0  0  0  0  0  0  0
   -4.1490    2.8704    0.9573 O   0  0  0  0  0  0  0  0  0  0  0  0
   -2.2136    1.5712    1.5530 C   0  0  0  0  0  0  0  0  0  0  0  0
   -2.0855    2.4343    3.2367 Br  0  0  0  0  0  0  0  0  0  0  0  0
   -1.2743    0.5883    1.2283 C   0  0  0  0  0  0  0  0  0  0  0  0
    1.1715   -0.5823   -0.1788 C   0  0  0  0  0  0  0  0  0  0  0  0
    2.1474   -1.1674    0.6472 C   0  0  0  0  0  0  0  0  0  0  0  0
    3.4282   -0.6091    0.7627 C   0  0  0  0  0  0  0  0  0  0  0  0
    4.6791   -1.4655    1.9052 Br  0  0  0  0  0  0  0  0  0  0  0  0
    3.7625    0.5441    0.0541 C   0  0  0  0  0  0  0  0  0  0  0  0
    5.0175    1.0779    0.1794 O   0  0  0  0  0  0  0  0  0  0  0  0
    2.8091    1.1362   -0.7736 C   0  0  0  0  0  0  0  0  0  0  0  0
    3.2162    2.7056   -1.7569 Br  0  0  0  0  0  0  0  0  0  0  0  0
    1.5316    0.5814   -0.8916 C   0  0  0  0  0  0  0  0  0  0  0  0
   -1.3041   -2.2279   -1.9561 H   0  0  0  0  0  0  0  0  0  0  0  0
    0.4450   -2.4560   -1.9686 H   0  0  0  0  0  0  0  0  0  0  0  0
   -0.2455   -0.9363   -2.5376 H   0  0  0  0  0  0  0  0  0  0  0  0
    0.1071   -3.2136    0.3895 H   0  0  0  0  0  0  0  0  0  0  0  0
   -0.4238   -2.1061    1.6617 H   0  0  0  0  0  0  0  0  0  0  0  0
   -1.5825   -2.7149    0.4799 H   0  0  0  0  0  0  0  0  0  0  0  0
   -2.4329   -0.2192   -1.8738 H   0  0  0  0  0  0  0  0  0  0  0  0
   -3.9450    3.2112    1.8468 H   0  0  0  0  0  0  0  0  0  0  0  0
   -0.4931    0.3448    1.9473 H   0  0  0  0  0  0  0  0  0  0  0  0
    1.9297   -2.0682    1.2152 H   0  0  0  0  0  0  0  0  0  0  0  0
    5.0631    1.8717   -0.3834 H   0  0  0  0  0  0  0  0  0  0  0  0
    0.8031    1.0641   -1.5417 H   0  0  0  0  0  0  0  0  0  0  0  0
  1  2  1  0
  2  3  1  0
  2  4  1  0
  4  5  2  0
  5  6  1  0
  6  7  1  0
  6  8  2  0
  8  9  1  0
  8 10  1  0
 10 11  1  0
 10 12  2  0
  2 13  1  0
 13 14  2  0
 14 15  1  0
 15 16  1  0
 15 17  2  0
 17 18  1  0
 17 19  1  0
 19 20  1  0
 19 21  2  0
 12  4  1  0
 21 13  1  0
  1 22  1  0
  1 23  1  0
  1 24  1  0
  3 25  1  0
  3 26  1  0
  3 27  1  0
  5 28  1  0
  9 29  1  0
 12 30  1  0
 14 31  1  0
 18 32  1  0
 21 33  1  0
M  END
