
     RDKit          3D

 14 14  0  0  0  0  0  0  0  0999 V2000
   -2.6884   -0.6443    0.1088 O   0  0  0  0  0  0  0  0  0  0  0  0
   -1.3543   -0.3162    0.0539 C   0  0  0  0  0  0  0  0  0  0  0  0
   -0.4026   -1.3439    0.1527 C   0  0  0  0  0  0  0  0  0  0  0  0
   -1.0059   -3.1433    0.3580 Br  0  0  0  0  0  0  0  0  0  0  0  0
    0.9600   -1.0240    0.0982 C   0  0  0  0  0  0  0  0  0  0  0  0
    2.3265   -2.3513    0.2238 Br  0  0  0  0  0  0  0  0  0  0  0  0
    1.3543    0.3162   -0.0539 C   0  0  0  0  0  0  0  0  0  0  0  0
    2.6884    0.6443   -0.1088 O   0  0  0  0  0  0  0  0  0  0  0  0
    0.4026    1.3439   -0.1527 C   0  0  0  0  0  0  0  0  0  0  0  0
    1.0059    3.1433   -0.3579 Br  0  0  0  0  0  0  0  0  0  0  0  0
   -0.9600    1.0240   -0.0982 C   0  0  0  0  0  0  0  0  0  0  0  0
   -2.3265    2.3513   -0.2238 Br  0  0  0  0  0  0  0  0  0  0  0  0
   -3.2137    0.1731    0.0270 H   0  0  0  0  0  0  0  0  0  0  0  0
    3.2137   -0.1731   -0.0270 H   0  0  0  0  0  0  0  0  0  0  0  0
  1  2  1  0
  2  3  2  0
  3  4  1  0
  3  5  1  0
  5  6  1  0
  5  7  2  0
  7  8  1  0
  7  9  1  0
  9 10  1  0
  9 11  2  0
 11 12  1  0
 11  2  1  0
  1 13  1  0
  8 14  1  0
M  END
