
     RDKit          3D

 46 49  0  0  0  0  0  0  0  0999 V2000
    1.5737   -1.1851   -1.9920 C   0  0  0  0  0  0  0  0  0  0  0  0
    2.3643   -1.2179   -3.1430 C   0  0  0  0  0  0  0  0  0  0  0  0
    3.1094   -0.0961   -3.5007 C   0  0  0  0  0  0  0  0  0  0  0  0
    3.0758    1.0557   -2.7172 C   0  0  0  0  0  0  0  0  0  0  0  0
    2.2830    1.0882   -1.5674 C   0  0  0  0  0  0  0  0  0  0  0  0
    1.5156   -0.0272   -1.2024 C   0  0  0  0  0  0  0  0  0  0  0  0
    0.6832    0.0185    0.0361 C   0  0  0  0  0  0  0  0  0  0  0  0
   -0.6831   -0.0185   -0.0360 C   0  0  0  0  0  0  0  0  0  0  0  0
   -1.3795   -0.0127   -1.3566 C   0  0  0  0  0  0  0  0  0  0  0  0
   -1.3514    1.1199   -2.1836 C   0  0  0  0  0  0  0  0  0  0  0  0
   -2.0155    1.1155   -3.4125 C   0  0  0  0  0  0  0  0  0  0  0  0
   -2.7205   -0.0179   -3.8120 C   0  0  0  0  0  0  0  0  0  0  0  0
   -2.7722   -1.1447   -2.9938 C   0  0  0  0  0  0  0  0  0  0  0  0
   -2.1059   -1.1401   -1.7660 C   0  0  0  0  0  0  0  0  0  0  0  0
   -3.6187   -0.0253   -5.4752 Br  0  0  0  0  0  0  0  0  0  0  0  0
   -1.5132   -0.0656    1.2040 C   0  0  0  0  0  0  0  0  0  0  0  0
   -1.5113   -1.1974    2.0326 C   0  0  0  0  0  0  0  0  0  0  0  0
   -2.3003   -1.2324    3.1846 C   0  0  0  0  0  0  0  0  0  0  0  0
   -3.1034   -0.1398    3.5046 C   0  0  0  0  0  0  0  0  0  0  0  0
   -3.1293    0.9850    2.6825 C   0  0  0  0  0  0  0  0  0  0  0  0
   -2.3383    1.0199    1.5316 C   0  0  0  0  0  0  0  0  0  0  0  0
   -4.1707   -0.1857    5.0640 Br  0  0  0  0  0  0  0  0  0  0  0  0
    1.3771    0.1055    1.3551 C   0  0  0  0  0  0  0  0  0  0  0  0
    1.2892    1.2626    2.1432 C   0  0  0  0  0  0  0  0  0  0  0  0
    1.9517    1.3347    3.3708 C   0  0  0  0  0  0  0  0  0  0  0  0
    2.7145    0.2538    3.8079 C   0  0  0  0  0  0  0  0  0  0  0  0
    2.8256   -0.8960    3.0285 C   0  0  0  0  0  0  0  0  0  0  0  0
    2.1610   -0.9679    1.8019 C   0  0  0  0  0  0  0  0  0  0  0  0
    3.6104    0.3499    5.4696 Br  0  0  0  0  0  0  0  0  0  0  0  0
    4.1789   -0.1391   -5.0587 Br  0  0  0  0  0  0  0  0  0  0  0  0
    0.9988   -2.0664   -1.7178 H   0  0  0  0  0  0  0  0  0  0  0  0
    2.3906   -2.1189   -3.7498 H   0  0  0  0  0  0  0  0  0  0  0  0
    3.6610    1.9298   -2.9897 H   0  0  0  0  0  0  0  0  0  0  0  0
    2.2652    1.9901   -0.9600 H   0  0  0  0  0  0  0  0  0  0  0  0
   -0.8073    2.0102   -1.8777 H   0  0  0  0  0  0  0  0  0  0  0  0
   -1.9757    1.9971   -4.0464 H   0  0  0  0  0  0  0  0  0  0  0  0
   -3.3268   -2.0278   -3.2994 H   0  0  0  0  0  0  0  0  0  0  0  0
   -2.1542   -2.0225   -1.1322 H   0  0  0  0  0  0  0  0  0  0  0  0
   -0.8908   -2.0562    1.7880 H   0  0  0  0  0  0  0  0  0  0  0  0
   -2.2800   -2.1125    3.8217 H   0  0  0  0  0  0  0  0  0  0  0  0
   -3.7598    1.8360    2.9256 H   0  0  0  0  0  0  0  0  0  0  0  0
   -2.3671    1.9003    0.8938 H   0  0  0  0  0  0  0  0  0  0  0  0
    0.6996    2.1123    1.8076 H   0  0  0  0  0  0  0  0  0  0  0  0
    1.8653    2.2340    3.9744 H   0  0  0  0  0  0  0  0  0  0  0  0
    3.4253   -1.7380    3.3635 H   0  0  0  0  0  0  0  0  0  0  0  0
    2.2558   -1.8676    1.1985 H   0  0  0  0  0  0  0  0  0  0  0  0
  1  2  2  0
  2  3  1  0
  3  4  2  0
  4  5  1  0
  5  6  2  0
  6  7  1  0
  7  8  2  3
  8  9  1  0
  9 10  2  0
 10 11  1  0
 11 12  2  0
 12 13  1  0
 13 14  2  0
 12 15  1  0
  8 16  1  0
 16 17  2  0
 17 18  1  0
 18 19  2  0
 19 20  1  0
 20 21  2  0
 19 22  1  0
  7 23  1  0
 23 24  2  0
 24 25  1  0
 25 26  2  0
 26 27  1  0
 27 28  2  0
 26 29  1  0
  3 30  1  0
  6  1  1  0
 14  9  1  0
 21 16  1  0
 28 23  1  0
  1 31  1  0
  2 32  1  0
  4 33  1  0
  5 34  1  0
 10 35  1  0
 11 36  1  0
 13 37  1  0
 14 38  1  0
 17 39  1  0
 18 40  1  0
 20 41  1  0
 21 42  1  0
 24 43  1  0
 25 44  1  0
 27 45  1  0
 28 46  1  0
M  END
