
     RDKit          3D

 10 11  0  0  0  0  0  0  0  0999 V2000
   -0.7128    0.3535   -0.0403 C   0  0  0  0  0  0  0  0  0  0  0  0
   -1.2055   -0.9178   -0.1521 C   0  0  0  0  0  0  0  0  0  0  0  0
    0.0479   -2.0848   -0.1114 S   0  0  0  0  0  0  0  0  0  0  0  0
    1.2466   -0.8726    0.0564 C   0  0  0  0  0  0  0  0  0  0  0  0
    0.6960    0.3795    0.0795 C   0  0  0  0  0  0  0  0  0  0  0  0
    1.3164    1.5962    0.1989 N   0  0  0  0  0  0  0  0  0  0  0  0
   -0.0618    2.6909    0.1437 S   0  0  0  0  0  0  0  0  0  0  0  0
   -1.3886    1.5463   -0.0311 N   0  0  0  0  0  0  0  0  0  0  0  0
    3.1095   -1.2889    0.1899 Br  0  0  0  0  0  0  0  0  0  0  0  0
   -3.0477   -1.4023   -0.3336 Br  0  0  0  0  0  0  0  0  0  0  0  0
  1  2  2  0
  2  3  1  0
  3  4  1  0
  4  5  2  0
  5  6  1  0
  6  7  2  0
  7  8  2  0
  4  9  1  0
  2 10  1  0
  5  1  1  0
  8  1  1  0
M  END
