
     RDKit          3D

 10 11  0  0  0  0  0  0  0  0999 V2000
   -0.7256    0.3280   -0.0251 C   0  0  0  0  0  0  0  0  0  0  0  0
   -1.1798   -0.9625   -0.0177 C   0  0  0  0  0  0  0  0  0  0  0  0
    0.1131   -2.0850    0.0352 S   0  0  0  0  0  0  0  0  0  0  0  0
    1.2769   -0.8281    0.0480 C   0  0  0  0  0  0  0  0  0  0  0  0
    0.6859    0.4051    0.0127 C   0  0  0  0  0  0  0  0  0  0  0  0
    1.2699    1.6455    0.0097 N   0  0  0  0  0  0  0  0  0  0  0  0
   -0.1460    2.6911   -0.0455 S   0  0  0  0  0  0  0  0  0  0  0  0
   -1.4403    1.4973   -0.0628 N   0  0  0  0  0  0  0  0  0  0  0  0
    3.1575   -1.1770    0.1053 Br  0  0  0  0  0  0  0  0  0  0  0  0
   -3.0115   -1.5144   -0.0598 Br  0  0  0  0  0  0  0  0  0  0  0  0
  1  2  2  0
  2  3  1  0
  3  4  1  0
  4  5  2  0
  5  6  1  0
  6  7  2  0
  7  8  2  0
  4  9  1  0
  2 10  1  0
  5  1  1  0
  8  1  1  0
M  END
