
     RDKit          3D

 55 60  0  0  0  0  0  0  0  0999 V2000
    2.2108   -2.9607   -1.0352 C   0  0  0  0  0  0  0  0  0  0  0  0
    1.6842   -1.6656   -0.9544 C   0  0  0  0  0  0  0  0  0  0  0  0
    0.5965   -1.3762   -0.1149 C   0  0  0  0  0  0  0  0  0  0  0  0
    0.0519   -2.4278    0.6397 C   0  0  0  0  0  0  0  0  0  0  0  0
    0.5784   -3.7226    0.5590 C   0  0  0  0  0  0  0  0  0  0  0  0
    1.6674   -4.0048   -0.2759 C   0  0  0  0  0  0  0  0  0  0  0  0
    2.1972   -5.3725   -0.3542 C   0  0  0  0  0  0  0  0  0  0  0  0
    1.4997   -6.5673   -0.4353 C   0  0  0  0  0  0  0  0  0  0  0  0
    2.3586   -7.7068   -0.4760 C   0  0  0  0  0  0  0  0  0  0  0  0
    3.6756   -7.3328   -0.4156 C   0  0  0  0  0  0  0  0  0  0  0  0
    3.8935   -5.6584   -0.3114 S   0  0  0  0  0  0  0  0  0  0  0  0
    5.1266   -8.5761   -0.4433 Br  0  0  0  0  0  0  0  0  0  0  0  0
    0.0549   -0.0410   -0.0307 N   0  0  0  0  0  0  0  0  0  0  0  0
   -1.3726    0.1547    0.0450 C   0  0  0  0  0  0  0  0  0  0  0  0
   -1.9270    1.1164    0.9047 C   0  0  0  0  0  0  0  0  0  0  0  0
   -3.3125    1.3039    0.9800 C   0  0  0  0  0  0  0  0  0  0  0  0
   -4.1852    0.5339    0.2000 C   0  0  0  0  0  0  0  0  0  0  0  0
   -3.6365   -0.4224   -0.6642 C   0  0  0  0  0  0  0  0  0  0  0  0
   -2.2510   -0.6105   -0.7388 C   0  0  0  0  0  0  0  0  0  0  0  0
   -5.6348    0.7540    0.2862 C   0  0  0  0  0  0  0  0  0  0  0  0
   -6.3269    1.9539    0.3300 C   0  0  0  0  0  0  0  0  0  0  0  0
   -7.7392    1.7737    0.4333 C   0  0  0  0  0  0  0  0  0  0  0  0
   -8.0640    0.4430    0.4725 C   0  0  0  0  0  0  0  0  0  0  0  0
   -6.7183   -0.5788    0.3891 S   0  0  0  0  0  0  0  0  0  0  0  0
   -9.8581   -0.2005    0.6104 Br  0  0  0  0  0  0  0  0  0  0  0  0
    0.9406    1.0983   -0.0198 C   0  0  0  0  0  0  0  0  0  0  0  0
    0.6272    2.2659   -0.7342 C   0  0  0  0  0  0  0  0  0  0  0  0
    1.4875    3.3705   -0.7253 C   0  0  0  0  0  0  0  0  0  0  0  0
    2.6884    3.3400   -0.0044 C   0  0  0  0  0  0  0  0  0  0  0  0
    3.0029    2.1799    0.7149 C   0  0  0  0  0  0  0  0  0  0  0  0
    2.1426    1.0750    0.7057 C   0  0  0  0  0  0  0  0  0  0  0  0
    3.5716    4.5134    0.0003 C   0  0  0  0  0  0  0  0  0  0  0  0
    3.2333    5.8506    0.1343 C   0  0  0  0  0  0  0  0  0  0  0  0
    4.3668    6.7162    0.0715 C   0  0  0  0  0  0  0  0  0  0  0  0
    5.5213    6.0023   -0.1164 C   0  0  0  0  0  0  0  0  0  0  0  0
    5.2688    4.3326   -0.2179 S   0  0  0  0  0  0  0  0  0  0  0  0
    7.2485    6.8086   -0.2536 Br  0  0  0  0  0  0  0  0  0  0  0  0
    3.0434   -3.1410   -1.7117 H   0  0  0  0  0  0  0  0  0  0  0  0
    2.1221   -0.8850   -1.5727 H   0  0  0  0  0  0  0  0  0  0  0  0
   -0.7786   -2.2427    1.3174 H   0  0  0  0  0  0  0  0  0  0  0  0
    0.1353   -4.5047    1.1717 H   0  0  0  0  0  0  0  0  0  0  0  0
    0.4182   -6.6232   -0.4737 H   0  0  0  0  0  0  0  0  0  0  0  0
    2.0177   -8.7322   -0.5450 H   0  0  0  0  0  0  0  0  0  0  0  0
   -1.2821    1.7156    1.5435 H   0  0  0  0  0  0  0  0  0  0  0  0
   -3.7011    2.0492    1.6705 H   0  0  0  0  0  0  0  0  0  0  0  0
   -4.2775   -1.0265   -1.3027 H   0  0  0  0  0  0  0  0  0  0  0  0
   -1.8606   -1.3504   -1.4342 H   0  0  0  0  0  0  0  0  0  0  0  0
   -5.8426    2.9221    0.2805 H   0  0  0  0  0  0  0  0  0  0  0  0
   -8.4610    2.5798    0.4759 H   0  0  0  0  0  0  0  0  0  0  0  0
   -0.2841    2.3173   -1.3258 H   0  0  0  0  0  0  0  0  0  0  0  0
    1.2140    4.2495   -1.3048 H   0  0  0  0  0  0  0  0  0  0  0  0
    3.9155    2.1221    1.3042 H   0  0  0  0  0  0  0  0  0  0  0  0
    2.4128    0.1983    1.2902 H   0  0  0  0  0  0  0  0  0  0  0  0
    2.2164    6.1951    0.2812 H   0  0  0  0  0  0  0  0  0  0  0  0
    4.3234    7.7945    0.1599 H   0  0  0  0  0  0  0  0  0  0  0  0
  1  2  2  0
  2  3  1  0
  3  4  2  0
  4  5  1  0
  5  6  2  0
  6  7  1  0
  7  8  2  0
  8  9  1  0
  9 10  2  0
 10 11  1  0
 10 12  1  0
  3 13  1  0
 13 14  1  0
 14 15  2  0
 15 16  1  0
 16 17  2  0
 17 18  1  0
 18 19  2  0
 17 20  1  0
 20 21  2  0
 21 22  1  0
 22 23  2  0
 23 24  1  0
 23 25  1  0
 13 26  1  0
 26 27  2  0
 27 28  1  0
 28 29  2  0
 29 30  1  0
 30 31  2  0
 29 32  1  0
 32 33  2  0
 33 34  1  0
 34 35  2  0
 35 36  1  0
 35 37  1  0
  6  1  1  0
 11  7  1  0
 19 14  1  0
 24 20  1  0
 31 26  1  0
 36 32  1  0
  1 38  1  0
  2 39  1  0
  4 40  1  0
  5 41  1  0
  8 42  1  0
  9 43  1  0
 15 44  1  0
 16 45  1  0
 18 46  1  0
 19 47  1  0
 21 48  1  0
 22 49  1  0
 27 50  1  0
 28 51  1  0
 30 52  1  0
 31 53  1  0
 33 54  1  0
 34 55  1  0
M  END
