
     RDKit          3D

 34 36  0  0  0  0  0  0  0  0999 V2000
   -3.3455   -4.8261    1.8164 Br  0  0  0  0  0  0  0  0  0  0  0  0
   -2.3169   -3.3422    1.2579 C   0  0  0  0  0  0  0  0  0  0  0  0
   -2.5445   -2.0907    1.8236 C   0  0  0  0  0  0  0  0  0  0  0  0
   -1.7831   -0.9937    1.4090 C   0  0  0  0  0  0  0  0  0  0  0  0
   -0.7857   -1.1334    0.4266 C   0  0  0  0  0  0  0  0  0  0  0  0
   -0.0000    0.0000    0.0000 N   0  0  0  0  0  0  0  0  0  0  0  0
   -0.6300    1.2852   -0.1884 C   0  0  0  0  0  0  0  0  0  0  0  0
   -1.8978    1.3881   -0.7898 C   0  0  0  0  0  0  0  0  0  0  0  0
   -2.5090    2.6322   -0.9735 C   0  0  0  0  0  0  0  0  0  0  0  0
   -1.8578    3.7896   -0.5558 C   0  0  0  0  0  0  0  0  0  0  0  0
   -2.6825    5.4720   -0.8025 Br  0  0  0  0  0  0  0  0  0  0  0  0
   -0.6029    3.7156    0.0426 C   0  0  0  0  0  0  0  0  0  0  0  0
    0.0063    2.4702    0.2240 C   0  0  0  0  0  0  0  0  0  0  0  0
    1.4157   -0.1517   -0.2381 C   0  0  0  0  0  0  0  0  0  0  0  0
    2.0366    0.4767   -1.3332 C   0  0  0  0  0  0  0  0  0  0  0  0
    3.4076    0.3303   -1.5654 C   0  0  0  0  0  0  0  0  0  0  0  0
    4.1746   -0.4474   -0.7022 C   0  0  0  0  0  0  0  0  0  0  0  0
    6.0280   -0.6460   -1.0139 Br  0  0  0  0  0  0  0  0  0  0  0  0
    3.5852   -1.0796    0.3891 C   0  0  0  0  0  0  0  0  0  0  0  0
    2.2138   -0.9322    0.6182 C   0  0  0  0  0  0  0  0  0  0  0  0
   -0.5758   -2.4092   -0.1283 C   0  0  0  0  0  0  0  0  0  0  0  0
   -1.3364   -3.5078    0.2835 C   0  0  0  0  0  0  0  0  0  0  0  0
   -3.3055   -1.9556    2.5876 H   0  0  0  0  0  0  0  0  0  0  0  0
   -1.9616   -0.0269    1.8745 H   0  0  0  0  0  0  0  0  0  0  0  0
   -2.4125    0.4955   -1.1386 H   0  0  0  0  0  0  0  0  0  0  0  0
   -3.4868    2.6834   -1.4450 H   0  0  0  0  0  0  0  0  0  0  0  0
   -0.0911    4.6149    0.3747 H   0  0  0  0  0  0  0  0  0  0  0  0
    0.9787    2.4291    0.7098 H   0  0  0  0  0  0  0  0  0  0  0  0
    1.4489    1.0729   -2.0278 H   0  0  0  0  0  0  0  0  0  0  0  0
    3.8607    0.8229   -2.4215 H   0  0  0  0  0  0  0  0  0  0  0  0
    4.1792   -1.6845    1.0691 H   0  0  0  0  0  0  0  0  0  0  0  0
    1.7730   -1.4180    1.4859 H   0  0  0  0  0  0  0  0  0  0  0  0
    0.1735   -2.5525   -0.9037 H   0  0  0  0  0  0  0  0  0  0  0  0
   -1.1566   -4.4812   -0.1650 H   0  0  0  0  0  0  0  0  0  0  0  0
  1  2  1  0
  2  3  2  0
  3  4  1  0
  4  5  2  0
  5  6  1  0
  6  7  1  0
  7  8  2  0
  8  9  1  0
  9 10  2  0
 10 11  1  0
 10 12  1  0
 12 13  2  0
  6 14  1  0
 14 15  2  0
 15 16  1  0
 16 17  2  0
 17 18  1  0
 17 19  1  0
 19 20  2  0
  5 21  1  0
 21 22  2  0
 22  2  1  0
 13  7  1  0
 20 14  1  0
  3 23  1  0
  4 24  1  0
  8 25  1  0
  9 26  1  0
 12 27  1  0
 13 28  1  0
 15 29  1  0
 16 30  1  0
 19 31  1  0
 20 32  1  0
 21 33  1  0
 22 34  1  0
M  END
