
     RDKit          3D

 15 15  0  0  0  0  0  0  0  0999 V2000
    2.3675   -0.2979   -0.0075 C   0  0  0  0  0  0  0  0  0  0  0  0
    2.2765    1.0749    0.0390 C   0  0  0  0  0  0  0  0  0  0  0  0
    0.6724    1.6175   -0.1836 S   0  0  0  0  0  0  0  0  0  0  0  0
    0.0834    0.0138   -0.3447 C   0  0  0  0  0  0  0  0  0  0  0  0
    1.1007   -0.9133   -0.2298 C   0  0  0  0  0  0  0  0  0  0  0  0
   -1.3683   -0.2189   -0.5717 C   0  0  0  0  0  0  0  0  0  0  0  0
   -2.1494    0.0905    0.6469 N   0  0  0  0  0  4  0  0  0  0  0  0
    3.3040   -0.8338    0.1059 H   0  0  0  0  0  0  0  0  0  0  0  0
    3.0806    1.7852    0.1880 H   0  0  0  0  0  0  0  0  0  0  0  0
    0.9636   -1.9869   -0.3077 H   0  0  0  0  0  0  0  0  0  0  0  0
   -1.7638    0.4120   -1.3742 H   0  0  0  0  0  0  0  0  0  0  0  0
   -1.5746   -1.2657   -0.8158 H   0  0  0  0  0  0  0  0  0  0  0  0
   -2.0003    1.0714    0.9163 H   0  0  0  0  0  0  0  0  0  0  0  0
   -1.8382   -0.4915    1.4337 H   0  0  0  0  0  0  0  0  0  0  0  0
   -3.1543   -0.0574    0.5051 H   0  0  0  0  0  0  0  0  0  0  0  0
  1  2  2  0
  2  3  1  0
  3  4  1  0
  4  5  2  0
  4  6  1  0
  6  7  1  0
  5  1  1  0
  1  8  1  0
  2  9  1  0
  5 10  1  0
  6 11  1  0
  6 12  1  0
  7 13  1  0
  7 14  1  0
  7 15  1  0
M  CHG  1   7   1
M  END
