
     RDKit          3D

 15 15  0  0  0  0  0  0  0  0999 V2000
   -2.3507   -0.2263   -0.3419 C   0  0  0  0  0  0  0  0  0  0  0  0
   -2.3243    0.4397    0.8626 C   0  0  0  0  0  0  0  0  0  0  0  0
   -0.7436    0.5444    1.5010 S   0  0  0  0  0  0  0  0  0  0  0  0
   -0.0782   -0.3039    0.1658 C   0  0  0  0  0  0  0  0  0  0  0  0
   -1.0532   -0.6575   -0.7463 C   0  0  0  0  0  0  0  0  0  0  0  0
    1.3863   -0.5594    0.1107 C   0  0  0  0  0  0  0  0  0  0  0  0
    2.1318    0.6943   -0.1402 N   0  0  0  0  0  4  0  0  0  0  0  0
   -3.2631   -0.4014   -0.9023 H   0  0  0  0  0  0  0  0  0  0  0  0
   -3.1628    0.8651    1.4003 H   0  0  0  0  0  0  0  0  0  0  0  0
   -0.8652   -1.2080   -1.6623 H   0  0  0  0  0  0  0  0  0  0  0  0
    1.7654   -0.9747    1.0500 H   0  0  0  0  0  0  0  0  0  0  0  0
    1.6449   -1.2433   -0.7038 H   0  0  0  0  0  0  0  0  0  0  0  0
    3.1447    0.5371   -0.1736 H   0  0  0  0  0  0  0  0  0  0  0  0
    1.8350    1.1208   -1.0260 H   0  0  0  0  0  0  0  0  0  0  0  0
    1.9329    1.3730    0.6059 H   0  0  0  0  0  0  0  0  0  0  0  0
  1  2  2  0
  2  3  1  0
  3  4  1  0
  4  5  2  0
  4  6  1  0
  6  7  1  0
  5  1  1  0
  1  8  1  0
  2  9  1  0
  5 10  1  0
  6 11  1  0
  6 12  1  0
  7 13  1  0
  7 14  1  0
  7 15  1  0
M  CHG  1   7   1
M  END
