
     RDKit          3D

 25 26  0  0  0  0  0  0  0  0999 V2000
    4.7801   -0.7967    0.9365 C   0  0  0  0  0  0  0  0  0  0  0  0
    5.1404   -1.0398   -0.3678 C   0  0  0  0  0  0  0  0  0  0  0  0
    3.8602   -0.7265   -1.4522 S   0  0  0  0  0  0  0  0  0  0  0  0
    2.7927   -0.2563   -0.1856 C   0  0  0  0  0  0  0  0  0  0  0  0
    3.4301   -0.3471    1.0411 C   0  0  0  0  0  0  0  0  0  0  0  0
    1.4311    0.1563   -0.4589 C   0  0  0  0  0  0  0  0  0  0  0  0
    0.8929    0.5759   -1.6634 C   0  0  0  0  0  0  0  0  0  0  0  0
   -0.4936    0.9004   -1.5762 C   0  0  0  0  0  0  0  0  0  0  0  0
   -0.9895    0.7136   -0.3047 C   0  0  0  0  0  0  0  0  0  0  0  0
   -2.3846    0.9287    0.1912 C   0  0  0  0  0  0  0  0  0  0  0  0
   -3.1575   -0.3886    0.2510 C   0  0  0  0  0  0  0  0  0  0  0  0
   -4.5384   -0.1549    0.7540 N   0  0  0  0  0  4  0  0  0  0  0  0
    0.2277    0.1724    0.7681 S   0  0  0  0  0  0  0  0  0  0  0  0
    5.4520   -0.9314    1.7758 H   0  0  0  0  0  0  0  0  0  0  0  0
    6.0966   -1.3852   -0.7376 H   0  0  0  0  0  0  0  0  0  0  0  0
    2.9626   -0.0959    1.9853 H   0  0  0  0  0  0  0  0  0  0  0  0
    1.4685    0.6596   -2.5789 H   0  0  0  0  0  0  0  0  0  0  0  0
   -1.0794    1.2558   -2.4165 H   0  0  0  0  0  0  0  0  0  0  0  0
   -2.9037    1.6302   -0.4744 H   0  0  0  0  0  0  0  0  0  0  0  0
   -2.3659    1.4015    1.1815 H   0  0  0  0  0  0  0  0  0  0  0  0
   -3.2569   -0.8482   -0.7377 H   0  0  0  0  0  0  0  0  0  0  0  0
   -2.6972   -1.1089    0.9346 H   0  0  0  0  0  0  0  0  0  0  0  0
   -5.0680    0.4844    0.1462 H   0  0  0  0  0  0  0  0  0  0  0  0
   -4.5365    0.2402    1.7043 H   0  0  0  0  0  0  0  0  0  0  0  0
   -5.0636   -1.0391    0.7960 H   0  0  0  0  0  0  0  0  0  0  0  0
  1  2  2  0
  2  3  1  0
  3  4  1  0
  4  5  2  0
  4  6  1  0
  6  7  2  0
  7  8  1  0
  8  9  2  0
  9 10  1  0
 10 11  1  0
 11 12  1  0
  9 13  1  0
  5  1  1  0
 13  6  1  0
  1 14  1  0
  2 15  1  0
  5 16  1  0
  7 17  1  0
  8 18  1  0
 10 19  1  0
 10 20  1  0
 11 21  1  0
 11 22  1  0
 12 23  1  0
 12 24  1  0
 12 25  1  0
M  CHG  1  12   1
M  END
