
     RDKit          3D

 24 24  0  0  0  0  0  0  0  0999 V2000
   -0.0846    0.4021   -1.0675 C   0  0  0  0  0  0  0  0  0  0  0  0
   -1.4481    1.0771   -0.9020 C   0  0  0  0  0  0  0  0  0  0  0  0
   -2.3440    0.2052   -0.0937 N   0  0  0  0  0  4  0  0  0  0  0  0
   -1.8142   -0.1479    1.2533 C   0  0  0  0  0  0  0  0  0  0  0  0
   -0.4618   -0.8369    1.0947 C   0  0  0  0  0  0  0  0  0  0  0  0
    0.5459    0.0057    0.2826 C   0  0  0  0  0  0  0  0  0  0  0  0
    1.8683   -0.7746    0.1282 C   0  0  0  0  0  0  0  0  0  0  0  0
    2.9444    0.0670   -0.4475 N   0  0  0  0  0  4  0  0  0  0  0  0
   -0.2005   -0.4920   -1.6938 H   0  0  0  0  0  0  0  0  0  0  0  0
    0.5810    1.0837   -1.6089 H   0  0  0  0  0  0  0  0  0  0  0  0
   -1.9368    1.2349   -1.8679 H   0  0  0  0  0  0  0  0  0  0  0  0
   -1.3645    2.0345   -0.3773 H   0  0  0  0  0  0  0  0  0  0  0  0
   -3.2486    0.6901    0.0314 H   0  0  0  0  0  0  0  0  0  0  0  0
   -2.5924   -0.6488   -0.6172 H   0  0  0  0  0  0  0  0  0  0  0  0
   -2.5486   -0.8059    1.7267 H   0  0  0  0  0  0  0  0  0  0  0  0
   -1.7342    0.7810    1.8272 H   0  0  0  0  0  0  0  0  0  0  0  0
   -0.6077   -1.8076    0.6028 H   0  0  0  0  0  0  0  0  0  0  0  0
   -0.0511   -1.0463    2.0897 H   0  0  0  0  0  0  0  0  0  0  0  0
    0.7496    0.9252    0.8485 H   0  0  0  0  0  0  0  0  0  0  0  0
    1.7555   -1.6403   -0.5321 H   0  0  0  0  0  0  0  0  0  0  0  0
    2.2383   -1.1139    1.1009 H   0  0  0  0  0  0  0  0  0  0  0  0
    3.8319   -0.4625   -0.4721 H   0  0  0  0  0  0  0  0  0  0  0  0
    2.7763    0.3620   -1.4189 H   0  0  0  0  0  0  0  0  0  0  0  0
    3.1460    0.9081    0.1128 H   0  0  0  0  0  0  0  0  0  0  0  0
  1  2  1  0
  2  3  1  0
  3  4  1  0
  4  5  1  0
  5  6  1  0
  6  7  1  0
  7  8  1  0
  6  1  1  0
  1  9  1  0
  1 10  1  0
  2 11  1  0
  2 12  1  0
  3 13  1  0
  3 14  1  0
  4 15  1  0
  4 16  1  0
  5 17  1  0
  5 18  1  0
  6 19  1  0
  7 20  1  0
  7 21  1  0
  8 22  1  0
  8 23  1  0
  8 24  1  0
M  CHG  2   3   1   8   1
M  END
