
     RDKit          3D

 24 24  0  0  0  0  0  0  0  0999 V2000
    0.3379   -1.1423   -0.8105 C   0  0  0  0  0  0  0  0  0  0  0  0
    1.8329   -1.1869   -0.4840 C   0  0  0  0  0  0  0  0  0  0  0  0
    2.2929    0.0958    0.1277 N   0  0  0  0  0  4  0  0  0  0  0  0
    1.5119    1.2995   -0.2546 C   0  0  0  0  0  0  0  0  0  0  0  0
    0.0627    1.1491    0.2215 C   0  0  0  0  0  0  0  0  0  0  0  0
   -0.4760   -0.2992    0.1864 C   0  0  0  0  0  0  0  0  0  0  0  0
   -1.9798   -0.3770   -0.1494 C   0  0  0  0  0  0  0  0  0  0  0  0
   -2.8104    0.2740    0.8920 N   0  0  0  0  0  4  0  0  0  0  0  0
    0.2054   -0.7320   -1.8207 H   0  0  0  0  0  0  0  0  0  0  0  0
   -0.0454   -2.1692   -0.8479 H   0  0  0  0  0  0  0  0  0  0  0  0
    2.4268   -1.3538   -1.3883 H   0  0  0  0  0  0  0  0  0  0  0  0
    2.0613   -1.9728    0.2425 H   0  0  0  0  0  0  0  0  0  0  0  0
    3.2794    0.2430   -0.1460 H   0  0  0  0  0  0  0  0  0  0  0  0
    2.3385    0.0075    1.1542 H   0  0  0  0  0  0  0  0  0  0  0  0
    1.5731    1.3923   -1.3442 H   0  0  0  0  0  0  0  0  0  0  0  0
    1.9957    2.1675    0.2032 H   0  0  0  0  0  0  0  0  0  0  0  0
   -0.5636    1.8130   -0.3869 H   0  0  0  0  0  0  0  0  0  0  0  0
   -0.0183    1.5216    1.2509 H   0  0  0  0  0  0  0  0  0  0  0  0
   -0.3288   -0.7379    1.1835 H   0  0  0  0  0  0  0  0  0  0  0  0
   -2.2110    0.1204   -1.0967 H   0  0  0  0  0  0  0  0  0  0  0  0
   -2.3173   -1.4170   -0.2016 H   0  0  0  0  0  0  0  0  0  0  0  0
   -2.6562    1.2875    0.9822 H   0  0  0  0  0  0  0  0  0  0  0  0
   -2.6989   -0.1507    1.8243 H   0  0  0  0  0  0  0  0  0  0  0  0
   -3.8127    0.1675    0.6624 H   0  0  0  0  0  0  0  0  0  0  0  0
  1  2  1  0
  2  3  1  0
  3  4  1  0
  4  5  1  0
  5  6  1  0
  6  7  1  0
  7  8  1  0
  6  1  1  0
  1  9  1  0
  1 10  1  0
  2 11  1  0
  2 12  1  0
  3 13  1  0
  3 14  1  0
  4 15  1  0
  4 16  1  0
  5 17  1  0
  5 18  1  0
  6 19  1  0
  7 20  1  0
  7 21  1  0
  8 22  1  0
  8 23  1  0
  8 24  1  0
M  CHG  2   3   1   8   1
M  END
