
     RDKit          3D

 45 48  0  0  0  0  0  0  0  0999 V2000
   -7.3443   -0.2876    1.4257 C   0  0  0  0  0  0  0  0  0  0  0  0
   -6.2335   -0.2640    2.4238 C   0  0  0  0  0  0  0  0  0  0  0  0
   -4.8684   -0.3760    2.1863 C   0  0  0  0  0  0  0  0  0  0  0  0
   -4.1271   -0.5514    0.7865 C   0  0  0  0  0  0  0  0  0  0  0  0
   -4.7441   -0.5973   -0.4427 C   0  0  0  0  0  0  0  0  0  0  0  0
   -3.6353   -0.7826   -1.7345 S   0  0  0  0  0  0  0  0  0  0  0  0
   -2.2990   -0.8224   -0.6686 C   0  0  0  0  0  0  0  0  0  0  0  0
   -2.7059   -0.6809    0.6438 C   0  0  0  0  0  0  0  0  0  0  0  0
   -0.9480   -0.9627   -1.1520 C   0  0  0  0  0  0  0  0  0  0  0  0
   -0.4136   -1.9679   -1.9431 C   0  0  0  0  0  0  0  0  0  0  0  0
   -1.1458   -3.1682   -2.4542 C   0  0  0  0  0  0  0  0  0  0  0  0
    0.9748   -1.7164   -2.2215 C   0  0  0  0  0  0  0  0  0  0  0  0
    1.4657   -0.5625   -1.6359 C   0  0  0  0  0  0  0  0  0  0  0  0
    2.8197   -0.0469   -1.7313 C   0  0  0  0  0  0  0  0  0  0  0  0
    3.8867   -0.6323   -2.3916 C   0  0  0  0  0  0  0  0  0  0  0  0
    5.0920    0.1276   -2.3041 C   0  0  0  0  0  0  0  0  0  0  0  0
    4.9240    1.2791   -1.5703 C   0  0  0  0  0  0  0  0  0  0  0  0
    5.9310    2.3370   -1.2457 C   0  0  0  0  0  0  0  0  0  0  0  0
    6.4489    2.1914    0.1849 C   0  0  0  0  0  0  0  0  0  0  0  0
    7.4117    3.2819    0.4997 N   0  0  0  0  0  4  0  0  0  0  0  0
    3.3158    1.4350   -1.0148 S   0  0  0  0  0  0  0  0  0  0  0  0
    0.2266    0.2120   -0.7396 S   0  0  0  0  0  0  0  0  0  0  0  0
   -3.9620   -0.3025    3.6495 S   0  0  0  0  0  0  0  0  0  0  0  0
   -5.3587   -0.1213    4.6002 C   0  0  0  0  0  0  0  0  0  0  0  0
   -6.4973   -0.1164    3.8324 C   0  0  0  0  0  0  0  0  0  0  0  0
   -7.3473   -1.2311    0.8723 H   0  0  0  0  0  0  0  0  0  0  0  0
   -8.3198   -0.1982    1.9161 H   0  0  0  0  0  0  0  0  0  0  0  0
   -7.2551    0.5507    0.7282 H   0  0  0  0  0  0  0  0  0  0  0  0
   -5.7902   -0.5263   -0.6892 H   0  0  0  0  0  0  0  0  0  0  0  0
   -2.0057   -0.6762    1.4696 H   0  0  0  0  0  0  0  0  0  0  0  0
   -0.4459   -3.9645   -2.7299 H   0  0  0  0  0  0  0  0  0  0  0  0
   -1.7297   -2.9081   -3.3423 H   0  0  0  0  0  0  0  0  0  0  0  0
   -1.8189   -3.5737   -1.6923 H   0  0  0  0  0  0  0  0  0  0  0  0
    1.5768   -2.3773   -2.8335 H   0  0  0  0  0  0  0  0  0  0  0  0
    3.8150   -1.5708   -2.9275 H   0  0  0  0  0  0  0  0  0  0  0  0
    6.0242   -0.1705   -2.7695 H   0  0  0  0  0  0  0  0  0  0  0  0
    6.7714    2.2702   -1.9487 H   0  0  0  0  0  0  0  0  0  0  0  0
    5.4892    3.3317   -1.3892 H   0  0  0  0  0  0  0  0  0  0  0  0
    6.9845    1.2488    0.3288 H   0  0  0  0  0  0  0  0  0  0  0  0
    5.6494    2.2638    0.9265 H   0  0  0  0  0  0  0  0  0  0  0  0
    8.2189    3.2830   -0.1373 H   0  0  0  0  0  0  0  0  0  0  0  0
    7.7781    3.1787    1.4561 H   0  0  0  0  0  0  0  0  0  0  0  0
    6.9647    4.2076    0.4474 H   0  0  0  0  0  0  0  0  0  0  0  0
   -5.2848   -0.0294    5.6748 H   0  0  0  0  0  0  0  0  0  0  0  0
   -7.4889   -0.0130    4.2588 H   0  0  0  0  0  0  0  0  0  0  0  0
  1  2  1  0
  2  3  2  0
  3  4  1  0
  4  5  2  0
  5  6  1  0
  6  7  1  0
  7  8  2  0
  7  9  1  0
  9 10  2  0
 10 11  1  0
 10 12  1  0
 12 13  2  0
 13 14  1  0
 14 15  2  0
 15 16  1  0
 16 17  2  0
 17 18  1  0
 18 19  1  0
 19 20  1  0
 17 21  1  0
 13 22  1  0
  3 23  1  0
 23 24  1  0
 24 25  2  0
 25  2  1  0
  8  4  1  0
 22  9  1  0
 21 14  1  0
  1 26  1  0
  1 27  1  0
  1 28  1  0
  5 29  1  0
  8 30  1  0
 11 31  1  0
 11 32  1  0
 11 33  1  0
 12 34  1  0
 15 35  1  0
 16 36  1  0
 18 37  1  0
 18 38  1  0
 19 39  1  0
 19 40  1  0
 20 41  1  0
 20 42  1  0
 20 43  1  0
 24 44  1  0
 25 45  1  0
M  CHG  1  20   1
M  END
