
     RDKit          3D

 17 16  0  0  0  0  0  0  0  0999 V2000
   -0.0116    0.2029    0.2581 C   0  0  0  0  0  0  0  0  0  0  0  0
    0.8442   -0.5359   -0.7709 C   0  0  0  0  0  0  0  0  0  0  0  0
    2.3046   -0.2421   -0.5588 C   0  0  0  0  0  0  0  0  0  0  0  0
    2.7741    0.4792    0.3032 O   0  0  0  0  0  0  0  0  0  0  0  0
    3.0786   -0.8800   -1.4511 O   0  0  0  0  0  0  0  0  0  0  0  0
   -1.4897   -0.0809    0.0606 C   0  0  0  0  0  0  0  0  0  0  0  0
   -2.2644    0.6614    1.0852 N   0  0  0  0  0  4  0  0  0  0  0  0
    0.1728    1.2825    0.1830 H   0  0  0  0  0  0  0  0  0  0  0  0
    0.2918   -0.0945    1.2704 H   0  0  0  0  0  0  0  0  0  0  0  0
    0.6911   -1.6165   -0.6779 H   0  0  0  0  0  0  0  0  0  0  0  0
    0.5702   -0.2177   -1.7826 H   0  0  0  0  0  0  0  0  0  0  0  0
    4.0024   -0.6274   -1.2324 H   0  0  0  0  0  0  0  0  0  0  0  0
   -1.8467    0.2597   -0.9157 H   0  0  0  0  0  0  0  0  0  0  0  0
   -1.7257   -1.1411    0.1906 H   0  0  0  0  0  0  0  0  0  0  0  0
   -2.0025    0.3791    2.0399 H   0  0  0  0  0  0  0  0  0  0  0  0
   -2.1148    1.6773    1.0145 H   0  0  0  0  0  0  0  0  0  0  0  0
   -3.2745    0.4941    0.9839 H   0  0  0  0  0  0  0  0  0  0  0  0
  1  2  1  0
  2  3  1  0
  3  4  2  0
  3  5  1  0
  1  6  1  0
  6  7  1  0
  1  8  1  0
  1  9  1  0
  2 10  1  0
  2 11  1  0
  5 12  1  0
  6 13  1  0
  6 14  1  0
  7 15  1  0
  7 16  1  0
  7 17  1  0
M  CHG  1   7   1
M  END
