
     RDKit          3D

 12 12  0  0  0  0  0  0  0  0999 V2000
    0.7804    0.7508   -0.0555 C   0  0  0  0  0  0  0  0  0  0  0  0
   -0.7257    0.7253    0.2246 C   0  0  0  0  0  0  0  0  0  0  0  0
   -0.7364   -0.6770   -0.2234 N   0  0  0  0  0  4  0  0  0  0  0  0
    0.7062   -0.7757    0.0535 C   0  0  0  0  0  0  0  0  0  0  0  0
    1.0450    1.1169   -1.0534 H   0  0  0  0  0  0  0  0  0  0  0  0
    1.3963    1.2528    0.6943 H   0  0  0  0  0  0  0  0  0  0  0  0
   -1.3377    1.3877   -0.3916 H   0  0  0  0  0  0  0  0  0  0  0  0
   -1.0040    0.8257    1.2788 H   0  0  0  0  0  0  0  0  0  0  0  0
   -0.9718   -0.7881   -1.2183 H   0  0  0  0  0  0  0  0  0  0  0  0
   -1.3231   -1.3013    0.3431 H   0  0  0  0  0  0  0  0  0  0  0  0
    1.2608   -1.3364   -0.7022 H   0  0  0  0  0  0  0  0  0  0  0  0
    0.9101   -1.1808    1.0500 H   0  0  0  0  0  0  0  0  0  0  0  0
  1  2  1  0
  2  3  1  0
  3  4  1  0
  4  1  1  0
  1  5  1  0
  1  6  1  0
  2  7  1  0
  2  8  1  0
  3  9  1  0
  3 10  1  0
  4 11  1  0
  4 12  1  0
M  CHG  1   3   1
M  END
