
     RDKit          3D

 17 16  0  0  0  0  0  0  0  0999 V2000
   -2.1445    0.3104    0.3493 C   0  0  0  0  0  0  0  0  0  0  0  0
   -1.2514   -0.8939    0.0935 C   0  0  0  0  0  0  0  0  0  0  0  0
    0.0834   -0.5339   -0.5616 C   0  0  0  0  0  0  0  0  0  0  0  0
    0.9736    0.3177    0.3326 C   0  0  0  0  0  0  0  0  0  0  0  0
    2.2738    0.5368   -0.3482 N   0  0  0  0  0  4  0  0  0  0  0  0
   -3.1158   -0.0174    0.7336 H   0  0  0  0  0  0  0  0  0  0  0  0
   -2.3178    0.8741   -0.5728 H   0  0  0  0  0  0  0  0  0  0  0  0
   -1.7058    0.9849    1.0905 H   0  0  0  0  0  0  0  0  0  0  0  0
   -1.0731   -1.4226    1.0371 H   0  0  0  0  0  0  0  0  0  0  0  0
   -1.7851   -1.5903   -0.5643 H   0  0  0  0  0  0  0  0  0  0  0  0
   -0.1017   -0.0140   -1.5098 H   0  0  0  0  0  0  0  0  0  0  0  0
    0.6049   -1.4664   -0.8121 H   0  0  0  0  0  0  0  0  0  0  0  0
    0.5517    1.3085    0.5203 H   0  0  0  0  0  0  0  0  0  0  0  0
    1.1936   -0.1773    1.2829 H   0  0  0  0  0  0  0  0  0  0  0  0
    2.9013    1.1120    0.2293 H   0  0  0  0  0  0  0  0  0  0  0  0
    2.1541    1.0223   -1.2472 H   0  0  0  0  0  0  0  0  0  0  0  0
    2.7587   -0.3509   -0.5356 H   0  0  0  0  0  0  0  0  0  0  0  0
  1  2  1  0
  2  3  1  0
  3  4  1  0
  4  5  1  0
  1  6  1  0
  1  7  1  0
  1  8  1  0
  2  9  1  0
  2 10  1  0
  3 11  1  0
  3 12  1  0
  4 13  1  0
  4 14  1  0
  5 15  1  0
  5 16  1  0
  5 17  1  0
M  CHG  1   5   1
M  END
