
     RDKit          3D

 20 19  0  0  0  0  0  0  0  0999 V2000
   -0.6047    0.3658    0.3958 C   0  0  0  0  0  0  0  0  0  0  0  0
    0.6923   -0.2578    0.9503 C   0  0  0  0  0  0  0  0  0  0  0  0
    1.8227   -0.4559   -0.0634 C   0  0  0  0  0  0  0  0  0  0  0  0
    2.6218    0.7852   -0.2112 N   0  0  0  0  0  4  0  0  0  0  0  0
   -1.5695   -0.6716   -0.1915 C   0  0  0  0  0  0  0  0  0  0  0  0
   -2.8733   -0.0373   -0.5035 N   0  0  0  0  0  4  0  0  0  0  0  0
   -0.3735    1.1384   -0.3466 H   0  0  0  0  0  0  0  0  0  0  0  0
   -1.1114    0.8714    1.2282 H   0  0  0  0  0  0  0  0  0  0  0  0
    0.4496   -1.2306    1.3958 H   0  0  0  0  0  0  0  0  0  0  0  0
    1.0563    0.3697    1.7742 H   0  0  0  0  0  0  0  0  0  0  0  0
    2.5226   -1.2206    0.2865 H   0  0  0  0  0  0  0  0  0  0  0  0
    1.4526   -0.7286   -1.0556 H   0  0  0  0  0  0  0  0  0  0  0  0
    3.4049    0.6393   -0.8686 H   0  0  0  0  0  0  0  0  0  0  0  0
    2.0963    1.5974   -0.5590 H   0  0  0  0  0  0  0  0  0  0  0  0
    3.0654    1.0647    0.6782 H   0  0  0  0  0  0  0  0  0  0  0  0
   -1.1866   -1.0958   -1.1240 H   0  0  0  0  0  0  0  0  0  0  0  0
   -1.7797   -1.4768    0.5187 H   0  0  0  0  0  0  0  0  0  0  0  0
   -3.3354    0.3491    0.3341 H   0  0  0  0  0  0  0  0  0  0  0  0
   -2.8133    0.7216   -1.1969 H   0  0  0  0  0  0  0  0  0  0  0  0
   -3.5370   -0.7276   -0.8903 H   0  0  0  0  0  0  0  0  0  0  0  0
  1  2  1  0
  2  3  1  0
  3  4  1  0
  1  5  1  0
  5  6  1  0
  1  7  1  0
  1  8  1  0
  2  9  1  0
  2 10  1  0
  3 11  1  0
  3 12  1  0
  4 13  1  0
  4 14  1  0
  4 15  1  0
  5 16  1  0
  5 17  1  0
  6 18  1  0
  6 19  1  0
  6 20  1  0
M  CHG  2   4   1   6   1
M  END
