
     RDKit          3D

 20 19  0  0  0  0  0  0  0  0999 V2000
   -0.6867   -0.8131   -0.2395 C   0  0  0  0  0  0  0  0  0  0  0  0
    0.4672    0.1953   -0.3877 C   0  0  0  0  0  0  0  0  0  0  0  0
    1.8299   -0.5039   -0.2833 C   0  0  0  0  0  0  0  0  0  0  0  0
    2.9293    0.4644   -0.5074 N   0  0  0  0  0  4  0  0  0  0  0  0
   -2.0830   -0.2449   -0.5140 C   0  0  0  0  0  0  0  0  0  0  0  0
   -2.5755    0.5686    0.6211 N   0  0  0  0  0  4  0  0  0  0  0  0
   -0.5191   -1.6262   -0.9576 H   0  0  0  0  0  0  0  0  0  0  0  0
   -0.6541   -1.2667    0.7587 H   0  0  0  0  0  0  0  0  0  0  0  0
    0.3850    0.9700    0.3836 H   0  0  0  0  0  0  0  0  0  0  0  0
    0.3885    0.6964   -1.3602 H   0  0  0  0  0  0  0  0  0  0  0  0
    1.9838   -0.9362    0.7099 H   0  0  0  0  0  0  0  0  0  0  0  0
    1.9411   -1.2839   -1.0425 H   0  0  0  0  0  0  0  0  0  0  0  0
    2.9574    1.2235    0.1875 H   0  0  0  0  0  0  0  0  0  0  0  0
    2.9034    0.8950   -1.4433 H   0  0  0  0  0  0  0  0  0  0  0  0
    3.8453   -0.0089   -0.4447 H   0  0  0  0  0  0  0  0  0  0  0  0
   -2.1012    0.3923   -1.4030 H   0  0  0  0  0  0  0  0  0  0  0  0
   -2.8060   -1.0568   -0.6390 H   0  0  0  0  0  0  0  0  0  0  0  0
   -2.6334    0.0295    1.4978 H   0  0  0  0  0  0  0  0  0  0  0  0
   -2.0308    1.4210    0.8003 H   0  0  0  0  0  0  0  0  0  0  0  0
   -3.5412    0.8844    0.4329 H   0  0  0  0  0  0  0  0  0  0  0  0
  1  2  1  0
  2  3  1  0
  3  4  1  0
  1  5  1  0
  5  6  1  0
  1  7  1  0
  1  8  1  0
  2  9  1  0
  2 10  1  0
  3 11  1  0
  3 12  1  0
  4 13  1  0
  4 14  1  0
  4 15  1  0
  5 16  1  0
  5 17  1  0
  6 18  1  0
  6 19  1  0
  6 20  1  0
M  CHG  2   4   1   6   1
M  END
