
     RDKit          3D

 20 20  0  0  0  0  0  0  0  0999 V2000
    3.0494   -0.3835   -0.1378 C   0  0  0  0  0  0  0  0  0  0  0  0
    2.1681   -1.4463   -0.3222 C   0  0  0  0  0  0  0  0  0  0  0  0
    0.8345   -1.3251    0.0706 C   0  0  0  0  0  0  0  0  0  0  0  0
    0.3707   -0.1370    0.6561 C   0  0  0  0  0  0  0  0  0  0  0  0
    1.2670    0.9278    0.8337 C   0  0  0  0  0  0  0  0  0  0  0  0
    2.6001    0.8019    0.4397 C   0  0  0  0  0  0  0  0  0  0  0  0
   -1.0751    0.0034    1.0524 C   0  0  0  0  0  0  0  0  0  0  0  0
   -1.9112    0.2534   -0.1374 N   0  0  0  0  0  0  0  0  0  0  0  0
   -3.2785    0.4432    0.2139 N   0  0  0  0  0  4  0  0  0  0  0  0
    4.0899   -0.4811   -0.4407 H   0  0  0  0  0  0  0  0  0  0  0  0
    2.5244   -2.3715   -0.7703 H   0  0  0  0  0  0  0  0  0  0  0  0
    0.1664   -2.1701   -0.0834 H   0  0  0  0  0  0  0  0  0  0  0  0
    0.9475    1.8634    1.2879 H   0  0  0  0  0  0  0  0  0  0  0  0
    3.2946    1.6265    0.5864 H   0  0  0  0  0  0  0  0  0  0  0  0
   -1.4010   -0.9131    1.5597 H   0  0  0  0  0  0  0  0  0  0  0  0
   -1.1858    0.8248    1.7714 H   0  0  0  0  0  0  0  0  0  0  0  0
   -1.4921    1.0350   -0.6626 H   0  0  0  0  0  0  0  0  0  0  0  0
   -3.8625    0.5759   -0.6308 H   0  0  0  0  0  0  0  0  0  0  0  0
   -3.6684   -0.3886    0.6914 H   0  0  0  0  0  0  0  0  0  0  0  0
   -3.4381    1.2610    0.8261 H   0  0  0  0  0  0  0  0  0  0  0  0
  1  2  2  0
  2  3  1  0
  3  4  2  0
  4  5  1  0
  5  6  2  0
  4  7  1  0
  7  8  1  0
  8  9  1  0
  6  1  1  0
  1 10  1  0
  2 11  1  0
  3 12  1  0
  5 13  1  0
  6 14  1  0
  7 15  1  0
  7 16  1  0
  8 17  1  0
  9 18  1  0
  9 19  1  0
  9 20  1  0
M  CHG  1   9   1
M  END
