
     RDKit          3D

 17 16  0  0  0  0  0  0  0  0999 V2000
   -0.6994   -0.0572    1.3505 C   0  0  0  0  0  0  0  0  0  0  0  0
   -0.0000    0.0000    0.0000 N   0  0  0  0  0  4  0  0  0  0  0  0
    1.0548   -1.0948   -0.0718 C   0  0  0  0  0  0  0  0  0  0  0  0
   -1.0213   -0.2060   -1.1094 C   0  0  0  0  0  0  0  0  0  0  0  0
    0.6660    1.3580   -0.1693 C   0  0  0  0  0  0  0  0  0  0  0  0
   -1.1717   -1.0385    1.4548 H   0  0  0  0  0  0  0  0  0  0  0  0
    0.0486    0.0925    2.1347 H   0  0  0  0  0  0  0  0  0  0  0  0
   -1.4529    0.7354    1.3843 H   0  0  0  0  0  0  0  0  0  0  0  0
    1.7793   -0.9311    0.7315 H   0  0  0  0  0  0  0  0  0  0  0  0
    1.5464   -1.0388   -1.0475 H   0  0  0  0  0  0  0  0  0  0  0  0
    0.5590   -2.0622    0.0517 H   0  0  0  0  0  0  0  0  0  0  0  0
   -0.5018   -0.1619   -2.0712 H   0  0  0  0  0  0  0  0  0  0  0  0
   -1.4893   -1.1853   -0.9721 H   0  0  0  0  0  0  0  0  0  0  0  0
   -1.7704    0.5885   -1.0426 H   0  0  0  0  0  0  0  0  0  0  0  0
    1.3957    1.4887    0.6353 H   0  0  0  0  0  0  0  0  0  0  0  0
    1.1629    1.3811   -1.1437 H   0  0  0  0  0  0  0  0  0  0  0  0
   -0.1057    2.1315   -0.1151 H   0  0  0  0  0  0  0  0  0  0  0  0
  1  2  1  0
  2  3  1  0
  2  4  1  0
  2  5  1  0
  1  6  1  0
  1  7  1  0
  1  8  1  0
  3  9  1  0
  3 10  1  0
  3 11  1  0
  4 12  1  0
  4 13  1  0
  4 14  1  0
  5 15  1  0
  5 16  1  0
  5 17  1  0
M  CHG  1   2   1
M  END
