
     RDKit          3D

 27 27  0  0  0  0  0  0  0  0999 V2000
    2.4195    0.1066   -1.1636 C   0  0  0  0  0  0  0  0  0  0  0  0
    2.5371    0.2266    0.3474 C   0  0  0  0  0  0  0  0  0  0  0  0
    1.2090    0.6206    0.9983 C   0  0  0  0  0  0  0  0  0  0  0  0
   -0.0373    0.1974    0.1903 C   0  0  0  0  0  0  0  0  0  0  0  0
    0.2374   -1.1032   -0.5732 C   0  0  0  0  0  0  0  0  0  0  0  0
    1.3963   -0.9552   -1.5647 C   0  0  0  0  0  0  0  0  0  0  0  0
   -1.2562    0.1025    1.1307 C   0  0  0  0  0  0  0  0  0  0  0  0
   -2.5918   -0.2242    0.4699 C   0  0  0  0  0  0  0  0  0  0  0  0
   -2.9425    0.7973   -0.5433 N   0  0  0  0  0  4  0  0  0  0  0  0
    2.1221    1.0769   -1.5809 H   0  0  0  0  0  0  0  0  0  0  0  0
    3.3933   -0.1363   -1.6036 H   0  0  0  0  0  0  0  0  0  0  0  0
    3.3078    0.9594    0.6121 H   0  0  0  0  0  0  0  0  0  0  0  0
    2.8689   -0.7355    0.7580 H   0  0  0  0  0  0  0  0  0  0  0  0
    1.1798    1.7098    1.1310 H   0  0  0  0  0  0  0  0  0  0  0  0
    1.1837    0.1941    2.0090 H   0  0  0  0  0  0  0  0  0  0  0  0
   -0.2308    0.9878   -0.5470 H   0  0  0  0  0  0  0  0  0  0  0  0
   -0.6463   -1.4385   -1.1260 H   0  0  0  0  0  0  0  0  0  0  0  0
    0.4757   -1.9000    0.1434 H   0  0  0  0  0  0  0  0  0  0  0  0
    1.0038   -0.7047   -2.5578 H   0  0  0  0  0  0  0  0  0  0  0  0
    1.8924   -1.9278   -1.6705 H   0  0  0  0  0  0  0  0  0  0  0  0
   -1.3575    1.0536    1.6704 H   0  0  0  0  0  0  0  0  0  0  0  0
   -1.0627   -0.6628    1.8935 H   0  0  0  0  0  0  0  0  0  0  0  0
   -3.3972   -0.2154    1.2109 H   0  0  0  0  0  0  0  0  0  0  0  0
   -2.5913   -1.1940   -0.0340 H   0  0  0  0  0  0  0  0  0  0  0  0
   -3.8863    0.6341   -0.9184 H   0  0  0  0  0  0  0  0  0  0  0  0
   -2.9318    1.7464   -0.1465 H   0  0  0  0  0  0  0  0  0  0  0  0
   -2.2954    0.7844   -1.3423 H   0  0  0  0  0  0  0  0  0  0  0  0
  1  2  1  0
  2  3  1  0
  3  4  1  0
  4  5  1  0
  5  6  1  0
  4  7  1  0
  7  8  1  0
  8  9  1  0
  6  1  1  0
  1 10  1  0
  1 11  1  0
  2 12  1  0
  2 13  1  0
  3 14  1  0
  3 15  1  0
  4 16  1  0
  5 17  1  0
  5 18  1  0
  6 19  1  0
  6 20  1  0
  7 21  1  0
  7 22  1  0
  8 23  1  0
  8 24  1  0
  9 25  1  0
  9 26  1  0
  9 27  1  0
M  CHG  1   9   1
M  END
