
     RDKit          3D

 24 24  0  0  0  0  0  0  0  0999 V2000
   -2.1900    0.3619    0.2510 C   0  0  0  0  0  0  0  0  0  0  0  0
   -1.5999    0.7721   -1.0989 C   0  0  0  0  0  0  0  0  0  0  0  0
   -0.0799    0.8711   -1.0483 C   0  0  0  0  0  0  0  0  0  0  0  0
    0.5525   -0.4931   -0.7117 C   0  0  0  0  0  0  0  0  0  0  0  0
   -0.2753   -1.2948    0.3152 C   0  0  0  0  0  0  0  0  0  0  0  0
   -1.2147   -0.4167    1.1346 C   0  0  0  0  0  0  0  0  0  0  0  0
    2.0347   -0.3704   -0.3331 C   0  0  0  0  0  0  0  0  0  0  0  0
    2.2285    0.3251    0.9612 N   0  0  0  0  0  4  0  0  0  0  0  0
   -3.0908   -0.2381    0.0733 H   0  0  0  0  0  0  0  0  0  0  0  0
   -2.5217    1.2535    0.7969 H   0  0  0  0  0  0  0  0  0  0  0  0
   -1.8872    0.0351   -1.8596 H   0  0  0  0  0  0  0  0  0  0  0  0
   -2.0327    1.7282   -1.4144 H   0  0  0  0  0  0  0  0  0  0  0  0
    0.3005    1.2183   -2.0164 H   0  0  0  0  0  0  0  0  0  0  0  0
    0.1979    1.6348   -0.3135 H   0  0  0  0  0  0  0  0  0  0  0  0
    0.5381   -1.0837   -1.6395 H   0  0  0  0  0  0  0  0  0  0  0  0
    0.3729   -1.8772    0.9800 H   0  0  0  0  0  0  0  0  0  0  0  0
   -0.8837   -2.0313   -0.2270 H   0  0  0  0  0  0  0  0  0  0  0  0
   -0.6253    0.2888    1.7326 H   0  0  0  0  0  0  0  0  0  0  0  0
   -1.7776   -1.0299    1.8476 H   0  0  0  0  0  0  0  0  0  0  0  0
    2.4961   -1.3573   -0.2256 H   0  0  0  0  0  0  0  0  0  0  0  0
    2.5927    0.1993   -1.0830 H   0  0  0  0  0  0  0  0  0  0  0  0
    1.8780    1.2911    0.9419 H   0  0  0  0  0  0  0  0  0  0  0  0
    1.7592   -0.1619    1.7357 H   0  0  0  0  0  0  0  0  0  0  0  0
    3.2278    0.3750    1.2008 H   0  0  0  0  0  0  0  0  0  0  0  0
  1  2  1  0
  2  3  1  0
  3  4  1  0
  4  5  1  0
  5  6  1  0
  4  7  1  0
  7  8  1  0
  6  1  1  0
  1  9  1  0
  1 10  1  0
  2 11  1  0
  2 12  1  0
  3 13  1  0
  3 14  1  0
  4 15  1  0
  5 16  1  0
  5 17  1  0
  6 18  1  0
  6 19  1  0
  7 20  1  0
  7 21  1  0
  8 22  1  0
  8 23  1  0
  8 24  1  0
M  CHG  1   8   1
M  END
