
     RDKit          3D

 21 20  0  0  0  0  0  0  0  0999 V2000
   -1.9287    0.0538    0.7184 C   0  0  0  0  0  0  0  0  0  0  0  0
   -0.5962   -0.0989   -0.0152 N   0  0  0  0  0  4  0  0  0  0  0  0
   -0.5334   -1.4879   -0.6281 C   0  0  0  0  0  0  0  0  0  0  0  0
   -0.5411    0.9494   -1.1252 C   0  0  0  0  0  0  0  0  0  0  0  0
    0.5379    0.1173    1.0208 C   0  0  0  0  0  0  0  0  0  0  0  0
    1.9649    0.0573    0.4486 C   0  0  0  0  0  0  0  0  0  0  0  0
    2.2106    1.1556   -0.4216 O   0  0  0  0  0  0  0  0  0  0  0  0
   -1.9701   -0.6919    1.5180 H   0  0  0  0  0  0  0  0  0  0  0  0
   -2.7418   -0.1098    0.0047 H   0  0  0  0  0  0  0  0  0  0  0  0
   -1.9827    1.0653    1.1320 H   0  0  0  0  0  0  0  0  0  0  0  0
   -1.4099   -1.6231   -1.2693 H   0  0  0  0  0  0  0  0  0  0  0  0
    0.3772   -1.5742   -1.2258 H   0  0  0  0  0  0  0  0  0  0  0  0
   -0.5356   -2.2239    0.1809 H   0  0  0  0  0  0  0  0  0  0  0  0
   -0.4429    1.9379   -0.6681 H   0  0  0  0  0  0  0  0  0  0  0  0
   -1.4726    0.8893   -1.6973 H   0  0  0  0  0  0  0  0  0  0  0  0
    0.2956    0.7250   -1.7904 H   0  0  0  0  0  0  0  0  0  0  0  0
    0.4099   -0.6544    1.7883 H   0  0  0  0  0  0  0  0  0  0  0  0
    0.3581    1.1023    1.4673 H   0  0  0  0  0  0  0  0  0  0  0  0
    2.6791    0.1229    1.2763 H   0  0  0  0  0  0  0  0  0  0  0  0
    2.1552   -0.8743   -0.0899 H   0  0  0  0  0  0  0  0  0  0  0  0
    3.1664    1.1623   -0.6244 H   0  0  0  0  0  0  0  0  0  0  0  0
  1  2  1  0
  2  3  1  0
  2  4  1  0
  2  5  1  0
  5  6  1  0
  6  7  1  0
  1  8  1  0
  1  9  1  0
  1 10  1  0
  3 11  1  0
  3 12  1  0
  3 13  1  0
  4 14  1  0
  4 15  1  0
  4 16  1  0
  5 17  1  0
  5 18  1  0
  6 19  1  0
  6 20  1  0
  7 21  1  0
M  CHG  1   2   1
M  END
