
     RDKit          3D

 18 17  0  0  0  0  0  0  0  0999 V2000
   -1.5102   -0.2655    1.3835 C   0  0  0  0  0  0  0  0  0  0  0  0
   -1.3725    0.4027    0.0214 C   0  0  0  0  0  0  0  0  0  0  0  0
    0.0123    0.7004   -0.3756 N   0  0  0  0  0  0  0  0  0  0  0  0
    0.7046   -0.3592   -1.1250 C   0  0  0  0  0  0  0  0  0  0  0  0
    1.4624   -1.3559   -0.2573 C   0  0  0  0  0  0  0  0  0  0  0  0
    0.6749    1.8021    0.0928 C   0  0  0  0  0  0  0  0  0  0  0  0
   -0.1181    2.9869    1.0540 S   0  0  0  0  0  0  0  0  0  0  0  0
    2.3251    2.0907   -0.2945 S   0  0  0  0  0  1  0  0  0  0  0  0
   -1.0341    0.3080    2.1827 H   0  0  0  0  0  0  0  0  0  0  0  0
   -2.5693   -0.3831    1.6351 H   0  0  0  0  0  0  0  0  0  0  0  0
   -1.0624   -1.2624    1.3822 H   0  0  0  0  0  0  0  0  0  0  0  0
   -1.8076   -0.2660   -0.7317 H   0  0  0  0  0  0  0  0  0  0  0  0
   -1.9877    1.3065   -0.0398 H   0  0  0  0  0  0  0  0  0  0  0  0
   -0.0444   -0.9128   -1.7049 H   0  0  0  0  0  0  0  0  0  0  0  0
    1.3580    0.0793   -1.8865 H   0  0  0  0  0  0  0  0  0  0  0  0
    0.7787   -1.9378    0.3659 H   0  0  0  0  0  0  0  0  0  0  0  0
    2.0081   -2.0621   -0.8914 H   0  0  0  0  0  0  0  0  0  0  0  0
    2.1822   -0.8718    0.4074 H   0  0  0  0  0  0  0  0  0  0  0  0
  1  2  1  0
  2  3  1  0
  3  4  1  0
  4  5  1  0
  3  6  1  0
  6  7  2  0
  6  8  1  0
  1  9  1  0
  1 10  1  0
  1 11  1  0
  2 12  1  0
  2 13  1  0
  4 14  1  0
  4 15  1  0
  5 16  1  0
  5 17  1  0
  5 18  1  0
M  CHG  1   8  -1
M  END
