
     RDKit          3D

 21 20  0  0  0  0  0  0  0  0999 V2000
   -2.4159   -0.3752    0.8319 C   0  0  0  0  0  0  0  0  0  0  0  0
   -1.4082    0.3664    0.0518 N   0  0  0  0  0  0  0  0  0  0  0  0
   -2.0479    1.2450   -0.9445 C   0  0  0  0  0  0  0  0  0  0  0  0
   -0.3293   -0.3650   -0.3886 C   0  0  0  0  0  0  0  0  0  0  0  0
   -0.3994   -1.2830   -1.2803 N   0  0  0  0  0  0  0  0  0  0  0  0
    0.8087    0.0291    0.2486 N   0  0  0  0  0  0  0  0  0  0  0  0
    2.0896   -0.4046    0.1684 C   0  0  0  0  0  0  0  0  0  0  0  0
    2.5874   -1.3525   -0.5170 N   0  0  0  0  0  0  0  0  0  0  0  0
    3.0655    0.2746    0.9581 N   0  0  0  0  0  4  0  0  0  0  0  0
   -3.1145    0.3202    1.3088 H   0  0  0  0  0  0  0  0  0  0  0  0
   -2.9818   -1.0624    0.1938 H   0  0  0  0  0  0  0  0  0  0  0  0
   -1.9300   -0.9526    1.6258 H   0  0  0  0  0  0  0  0  0  0  0  0
   -2.5988    0.6622   -1.6905 H   0  0  0  0  0  0  0  0  0  0  0  0
   -1.2915    1.8481   -1.4582 H   0  0  0  0  0  0  0  0  0  0  0  0
   -2.7422    1.9341   -0.4525 H   0  0  0  0  0  0  0  0  0  0  0  0
   -1.3649   -1.3892   -1.6022 H   0  0  0  0  0  0  0  0  0  0  0  0
    0.5701    0.7758    0.8813 H   0  0  0  0  0  0  0  0  0  0  0  0
    3.5845   -1.5428   -0.4525 H   0  0  0  0  0  0  0  0  0  0  0  0
    2.6655    1.0639    1.4600 H   0  0  0  0  0  0  0  0  0  0  0  0
    3.4577   -0.4001    1.6186 H   0  0  0  0  0  0  0  0  0  0  0  0
    3.7956    0.6081    0.3245 H   0  0  0  0  0  0  0  0  0  0  0  0
  1  2  1  0
  2  3  1  0
  2  4  1  0
  4  5  2  3
  4  6  1  0
  6  7  1  0
  7  8  2  3
  7  9  1  0
  1 10  1  0
  1 11  1  0
  1 12  1  0
  3 13  1  0
  3 14  1  0
  3 15  1  0
  5 16  1  0
  6 17  1  0
  8 18  1  0
  9 19  1  0
  9 20  1  0
  9 21  1  0
M  CHG  1   9   1
M  END
