
     RDKit          3D

 22 21  0  0  0  0  0  0  0  0999 V2000
   -1.6486   -1.0307    0.0480 C   0  0  0  0  0  0  0  0  0  0  0  0
   -0.8535    0.1594   -0.3231 N   0  0  0  0  0  0  0  0  0  0  0  0
   -1.7947    1.1839   -0.8253 C   0  0  0  0  0  0  0  0  0  0  0  0
   -0.1467    0.6925    0.8620 C   0  0  0  0  0  0  0  0  0  0  0  0
    1.0606   -0.1647    1.2767 C   0  0  0  0  0  0  0  0  0  0  0  0
    1.8530   -0.8236    0.1461 C   0  0  0  0  0  0  0  0  0  0  0  0
    1.7790   -0.0455   -1.1064 N   0  0  0  0  0  4  0  0  0  0  0  0
   -2.3889   -0.8094    0.8255 H   0  0  0  0  0  0  0  0  0  0  0  0
   -2.1738   -1.4233   -0.8300 H   0  0  0  0  0  0  0  0  0  0  0  0
   -1.0017   -1.8370    0.4078 H   0  0  0  0  0  0  0  0  0  0  0  0
   -2.3292    0.8114   -1.7062 H   0  0  0  0  0  0  0  0  0  0  0  0
   -1.2465    2.0768   -1.1460 H   0  0  0  0  0  0  0  0  0  0  0  0
   -2.5299    1.4799   -0.0681 H   0  0  0  0  0  0  0  0  0  0  0  0
   -0.8219    0.8323    1.7160 H   0  0  0  0  0  0  0  0  0  0  0  0
    0.2459    1.6883    0.6143 H   0  0  0  0  0  0  0  0  0  0  0  0
    1.7409    0.4724    1.8565 H   0  0  0  0  0  0  0  0  0  0  0  0
    0.7325   -0.9522    1.9668 H   0  0  0  0  0  0  0  0  0  0  0  0
    2.9102   -0.9337    0.4053 H   0  0  0  0  0  0  0  0  0  0  0  0
    1.4472   -1.8132   -0.0867 H   0  0  0  0  0  0  0  0  0  0  0  0
    2.2025   -0.5356   -1.9016 H   0  0  0  0  0  0  0  0  0  0  0  0
    0.7682    0.0841   -1.3245 H   0  0  0  0  0  0  0  0  0  0  0  0
    2.1952    0.8880   -1.0275 H   0  0  0  0  0  0  0  0  0  0  0  0
  1  2  1  0
  2  3  1  0
  2  4  1  0
  4  5  1  0
  5  6  1  0
  6  7  1  0
  1  8  1  0
  1  9  1  0
  1 10  1  0
  3 11  1  0
  3 12  1  0
  3 13  1  0
  4 14  1  0
  4 15  1  0
  5 16  1  0
  5 17  1  0
  6 18  1  0
  6 19  1  0
  7 20  1  0
  7 21  1  0
  7 22  1  0
M  CHG  1   7   1
M  END
