
     RDKit          3D

 14 13  0  0  0  0  0  0  0  0999 V2000
   -0.7257   -0.3831   -0.5644 C   0  0  0  0  0  0  0  0  0  0  0  0
    0.4982   -0.8138    0.2853 C   0  0  0  0  0  0  0  0  0  0  0  0
    1.6546    0.1306    0.2153 N   0  0  0  0  0  4  0  0  0  0  0  0
   -1.4820    0.7777   -0.0035 N   0  0  0  0  0  4  0  0  0  0  0  0
   -0.4280   -0.1035   -1.5794 H   0  0  0  0  0  0  0  0  0  0  0  0
   -1.4444   -1.2068   -0.6155 H   0  0  0  0  0  0  0  0  0  0  0  0
    0.2353   -0.9107    1.3430 H   0  0  0  0  0  0  0  0  0  0  0  0
    0.8780   -1.7732   -0.0792 H   0  0  0  0  0  0  0  0  0  0  0  0
    2.0129    0.2892   -0.7418 H   0  0  0  0  0  0  0  0  0  0  0  0
    1.5252    1.0450    0.6711 H   0  0  0  0  0  0  0  0  0  0  0  0
    2.4623   -0.2893    0.7135 H   0  0  0  0  0  0  0  0  0  0  0  0
   -1.0055    1.6902   -0.0336 H   0  0  0  0  0  0  0  0  0  0  0  0
   -2.3421    0.9219   -0.5660 H   0  0  0  0  0  0  0  0  0  0  0  0
   -1.8390    0.6257    0.9551 H   0  0  0  0  0  0  0  0  0  0  0  0
  1  2  1  0
  2  3  1  0
  1  4  1  0
  1  5  1  0
  1  6  1  0
  2  7  1  0
  2  8  1  0
  3  9  1  0
  3 10  1  0
  3 11  1  0
  4 12  1  0
  4 13  1  0
  4 14  1  0
M  CHG  2   3   1   4   1
M  END
