
     RDKit          3D

 14 13  0  0  0  0  0  0  0  0999 V2000
   -0.6791   -0.6942   -0.2800 C   0  0  0  0  0  0  0  0  0  0  0  0
    0.7203   -0.5374    0.3701 C   0  0  0  0  0  0  0  0  0  0  0  0
    1.5832    0.4974   -0.2770 N   0  0  0  0  0  4  0  0  0  0  0  0
   -1.6145    0.4373    0.0006 N   0  0  0  0  0  4  0  0  0  0  0  0
   -0.6060   -0.7791   -1.3684 H   0  0  0  0  0  0  0  0  0  0  0  0
   -1.1695   -1.5882    0.1172 H   0  0  0  0  0  0  0  0  0  0  0  0
    1.2722   -1.4783    0.2833 H   0  0  0  0  0  0  0  0  0  0  0  0
    0.6409   -0.2644    1.4266 H   0  0  0  0  0  0  0  0  0  0  0  0
    1.7526    0.3361   -1.2844 H   0  0  0  0  0  0  0  0  0  0  0  0
    2.5317    0.4539    0.1417 H   0  0  0  0  0  0  0  0  0  0  0  0
    1.2953    1.4776   -0.1473 H   0  0  0  0  0  0  0  0  0  0  0  0
   -1.7841    0.6053    1.0069 H   0  0  0  0  0  0  0  0  0  0  0  0
   -2.5535    0.1970   -0.3701 H   0  0  0  0  0  0  0  0  0  0  0  0
   -1.3896    1.3370   -0.4472 H   0  0  0  0  0  0  0  0  0  0  0  0
  1  2  1  0
  2  3  1  0
  1  4  1  0
  1  5  1  0
  1  6  1  0
  2  7  1  0
  2  8  1  0
  3  9  1  0
  3 10  1  0
  3 11  1  0
  4 12  1  0
  4 13  1  0
  4 14  1  0
M  CHG  2   3   1   4   1
M  END
