
     RDKit          3D

  8  7  0  0  0  0  0  0  0  0999 V2000
   -0.0420    0.2699    0.3493 C   0  0  0  0  0  0  0  0  0  0  0  0
   -1.1089    0.0406   -0.3792 N   0  0  0  0  0  4  0  0  0  0  0  0
    1.1410   -0.2461    0.1131 N   0  0  0  0  0  0  0  0  0  0  0  0
   -0.1448    0.9298    1.2034 H   0  0  0  0  0  0  0  0  0  0  0  0
   -1.0942   -0.5639   -1.1926 H   0  0  0  0  0  0  0  0  0  0  0  0
   -1.9998    0.4709   -0.1447 H   0  0  0  0  0  0  0  0  0  0  0  0
    1.3178   -0.8712   -0.6648 H   0  0  0  0  0  0  0  0  0  0  0  0
    1.9312   -0.0300    0.7155 H   0  0  0  0  0  0  0  0  0  0  0  0
  1  2  2  0
  1  3  1  0
  1  4  1  0
  2  5  1  0
  2  6  1  0
  3  7  1  0
  3  8  1  0
M  CHG  1   2   1
M  END
