
     RDKit          3D

 21 21  0  0  0  0  0  0  0  0999 V2000
    0.9599   -0.5993    0.3569 C   0  0  0  0  0  0  0  0  0  0  0  0
    1.9802    0.5390    0.2616 C   0  0  0  0  0  0  0  0  0  0  0  0
    3.3572    0.0066    0.4527 N   0  0  0  0  0  4  0  0  0  0  0  0
   -0.4989   -0.2466    0.1871 C   0  0  0  0  0  0  0  0  0  0  0  0
   -1.4457   -1.2792    0.2718 C   0  0  0  0  0  0  0  0  0  0  0  0
   -2.8111   -1.0387    0.1267 C   0  0  0  0  0  0  0  0  0  0  0  0
   -3.2628    0.2503   -0.1082 C   0  0  0  0  0  0  0  0  0  0  0  0
   -2.3502    1.2911   -0.1970 C   0  0  0  0  0  0  0  0  0  0  0  0
   -0.9844    1.0426   -0.0506 C   0  0  0  0  0  0  0  0  0  0  0  0
   -0.1266    2.0683   -0.1413 F   0  0  0  0  0  0  0  0  0  0  0  0
   -2.7729    2.5417   -0.4237 F   0  0  0  0  0  0  0  0  0  0  0  0
   -4.5726    0.4907   -0.2489 F   0  0  0  0  0  0  0  0  0  0  0  0
   -3.6798   -2.0538    0.2150 F   0  0  0  0  0  0  0  0  0  0  0  0
   -1.0161   -2.5290    0.4990 F   0  0  0  0  0  0  0  0  0  0  0  0
    1.0739   -1.0823    1.3367 H   0  0  0  0  0  0  0  0  0  0  0  0
    1.2114   -1.3513   -0.4031 H   0  0  0  0  0  0  0  0  0  0  0  0
    1.8310    1.2904    1.0427 H   0  0  0  0  0  0  0  0  0  0  0  0
    1.9705    1.0176   -0.7223 H   0  0  0  0  0  0  0  0  0  0  0  0
    3.4784   -0.4350    1.3746 H   0  0  0  0  0  0  0  0  0  0  0  0
    3.6079   -0.6883   -0.2642 H   0  0  0  0  0  0  0  0  0  0  0  0
    4.0508    0.7652    0.3903 H   0  0  0  0  0  0  0  0  0  0  0  0
  1  2  1  0
  2  3  1  0
  1  4  1  0
  4  5  2  0
  5  6  1  0
  6  7  2  0
  7  8  1  0
  8  9  2  0
  9 10  1  0
  8 11  1  0
  7 12  1  0
  6 13  1  0
  5 14  1  0
  9  4  1  0
  1 15  1  0
  1 16  1  0
  2 17  1  0
  2 18  1  0
  3 19  1  0
  3 20  1  0
  3 21  1  0
M  CHG  1   3   1
M  END
