
     RDKit          3D

  9  8  0  0  0  0  0  0  0  0999 V2000
   -0.0269    0.1820    0.1564 C   0  0  0  0  0  0  0  0  0  0  0  0
   -0.5836    0.9996    0.9650 N   0  0  0  0  0  0  0  0  0  0  0  0
   -0.6219   -0.8680   -0.4295 N   0  0  0  0  0  0  0  0  0  0  0  0
    1.2609    0.3106   -0.1975 N   0  0  0  0  0  0  0  0  0  0  0  0
   -1.5650    0.7463    1.0901 H   0  0  0  0  0  0  0  0  0  0  0  0
   -1.4880   -1.1597    0.0052 H   0  0  0  0  0  0  0  0  0  0  0  0
    0.0086   -1.6543   -0.5417 H   0  0  0  0  0  0  0  0  0  0  0  0
    1.3962    0.2484   -1.1990 H   0  0  0  0  0  0  0  0  0  0  0  0
    1.6198    1.1951    0.1510 H   0  0  0  0  0  0  0  0  0  0  0  0
  1  2  2  3
  1  3  1  0
  1  4  1  0
  2  5  1  0
  3  6  1  0
  3  7  1  0
  4  8  1  0
  4  9  1  0
M  END
