
     RDKit          3D

 19 19  0  0  0  0  0  0  0  0999 V2000
   -0.4135   -0.6238   -0.0623 C   0  0  0  0  0  0  0  0  0  0  0  0
   -1.6642    0.2540   -0.2592 C   0  0  0  0  0  0  0  0  0  0  0  0
   -2.8867   -0.5759   -0.4466 N   0  0  0  0  0  4  0  0  0  0  0  0
    0.8820    0.1204    0.1366 C   0  0  0  0  0  0  0  0  0  0  0  0
    1.1260    1.4357    0.1706 C   0  0  0  0  0  0  0  0  0  0  0  0
    2.4414    1.7517    0.3740 N   0  0  0  0  0  0  0  0  0  0  0  0
    3.0717    0.6330    0.4752 C   0  0  0  0  0  0  0  0  0  0  0  0
    2.1482   -0.5165    0.3352 N   0  0  0  0  0  4  0  0  0  0  0  0
   -0.3013   -1.2807   -0.9340 H   0  0  0  0  0  0  0  0  0  0  0  0
   -0.5716   -1.2755    0.8061 H   0  0  0  0  0  0  0  0  0  0  0  0
   -1.5778    0.8816   -1.1517 H   0  0  0  0  0  0  0  0  0  0  0  0
   -1.8520    0.8869    0.6138 H   0  0  0  0  0  0  0  0  0  0  0  0
   -3.1106   -1.1755    0.3625 H   0  0  0  0  0  0  0  0  0  0  0  0
   -3.7172    0.0266   -0.5774 H   0  0  0  0  0  0  0  0  0  0  0  0
   -2.8551   -1.1804   -1.2820 H   0  0  0  0  0  0  0  0  0  0  0  0
    0.4088    2.2419    0.0568 H   0  0  0  0  0  0  0  0  0  0  0  0
    4.1560    0.5290    0.6439 H   0  0  0  0  0  0  0  0  0  0  0  0
    2.2288   -1.0639    1.2003 H   0  0  0  0  0  0  0  0  0  0  0  0
    2.4869   -1.0689   -0.4616 H   0  0  0  0  0  0  0  0  0  0  0  0
  1  2  1  0
  2  3  1  0
  1  4  1  0
  4  5  2  0
  5  6  1  0
  6  7  2  0
  7  8  1  0
  8  4  1  0
  1  9  1  0
  1 10  1  0
  2 11  1  0
  2 12  1  0
  3 13  1  0
  3 14  1  0
  3 15  1  0
  5 16  1  0
  7 17  1  0
  8 18  1  0
  8 19  1  0
M  CHG  2   3   1   8   1
M  END
