
     RDKit          3D

 19 19  0  0  0  0  0  0  0  0999 V2000
    0.5283    0.5303    0.0020 C   0  0  0  0  0  0  0  0  0  0  0  0
    1.5921   -0.5218    0.3699 C   0  0  0  0  0  0  0  0  0  0  0  0
    2.9580    0.0715    0.3928 N   0  0  0  0  0  4  0  0  0  0  0  0
   -0.8931    0.0316   -0.0493 C   0  0  0  0  0  0  0  0  0  0  0  0
   -1.3879   -1.1913    0.1753 C   0  0  0  0  0  0  0  0  0  0  0  0
   -2.7461   -1.2755    0.0355 N   0  0  0  0  0  0  0  0  0  0  0  0
   -3.1515   -0.0955   -0.2847 C   0  0  0  0  0  0  0  0  0  0  0  0
   -2.0187    0.8547   -0.3715 N   0  0  0  0  0  4  0  0  0  0  0  0
    0.5775    1.3520    0.7275 H   0  0  0  0  0  0  0  0  0  0  0  0
    0.7773    0.9580   -0.9772 H   0  0  0  0  0  0  0  0  0  0  0  0
    1.4189   -0.9357    1.3682 H   0  0  0  0  0  0  0  0  0  0  0  0
    1.6215   -1.3356   -0.3613 H   0  0  0  0  0  0  0  0  0  0  0  0
    3.0748    0.8200    1.0931 H   0  0  0  0  0  0  0  0  0  0  0  0
    3.2636    0.4476   -0.5179 H   0  0  0  0  0  0  0  0  0  0  0  0
    3.6606   -0.6459    0.6410 H   0  0  0  0  0  0  0  0  0  0  0  0
   -0.8364   -2.0856    0.4466 H   0  0  0  0  0  0  0  0  0  0  0  0
   -4.2007    0.1853   -0.4727 H   0  0  0  0  0  0  0  0  0  0  0  0
   -2.0237    1.2298   -1.3275 H   0  0  0  0  0  0  0  0  0  0  0  0
   -2.2146    1.6061    0.3005 H   0  0  0  0  0  0  0  0  0  0  0  0
  1  2  1  0
  2  3  1  0
  1  4  1  0
  4  5  2  0
  5  6  1  0
  6  7  2  0
  7  8  1  0
  8  4  1  0
  1  9  1  0
  1 10  1  0
  2 11  1  0
  2 12  1  0
  3 13  1  0
  3 14  1  0
  3 15  1  0
  5 16  1  0
  7 17  1  0
  8 18  1  0
  8 19  1  0
M  CHG  2   3   1   8   1
M  END
