
     RDKit          3D

 17 16  0  0  0  0  0  0  0  0999 V2000
   -1.1755   -0.1933    0.4787 C   0  0  0  0  0  0  0  0  0  0  0  0
   -0.1287   -0.8577   -0.4314 C   0  0  0  0  0  0  0  0  0  0  0  0
    1.1656   -0.0839   -0.5979 C   0  0  0  0  0  0  0  0  0  0  0  0
    2.0044   -0.1214    0.6644 C   0  0  0  0  0  0  0  0  0  0  0  0
    2.3214   -1.3764    1.0364 F   0  0  0  0  0  0  0  0  0  0  0  0
    3.1473    0.5820    0.5338 F   0  0  0  0  0  0  0  0  0  0  0  0
    1.3136    0.4339    1.6929 F   0  0  0  0  0  0  0  0  0  0  0  0
    1.8663   -0.5705   -1.6554 F   0  0  0  0  0  0  0  0  0  0  0  0
    0.8329    1.2088   -0.9175 F   0  0  0  0  0  0  0  0  0  0  0  0
   -0.7488   -0.9558   -1.6537 F   0  0  0  0  0  0  0  0  0  0  0  0
    0.0843   -2.1271   -0.0195 F   0  0  0  0  0  0  0  0  0  0  0  0
   -1.8413    0.9874   -0.1777 N   0  0  0  0  0  4  0  0  0  0  0  0
   -0.8006    0.1382    1.4466 H   0  0  0  0  0  0  0  0  0  0  0  0
   -1.9876   -0.9034    0.6678 H   0  0  0  0  0  0  0  0  0  0  0  0
   -2.6016    1.3717    0.4017 H   0  0  0  0  0  0  0  0  0  0  0  0
   -1.1892    1.7611   -0.3890 H   0  0  0  0  0  0  0  0  0  0  0  0
   -2.2625    0.7064   -1.0802 H   0  0  0  0  0  0  0  0  0  0  0  0
  1  2  1  0
  2  3  1  0
  3  4  1  0
  4  5  1  0
  4  6  1  0
  4  7  1  0
  3  8  1  0
  3  9  1  0
  2 10  1  0
  2 11  1  0
  1 12  1  0
  1 13  1  0
  1 14  1  0
 12 15  1  0
 12 16  1  0
 12 17  1  0
M  CHG  1  12   1
M  END
