
     RDKit          3D

 17 16  0  0  0  0  0  0  0  0999 V2000
    0.9478    0.2878    0.4555 C   0  0  0  0  0  0  0  0  0  0  0  0
    0.0401   -0.4661   -0.5238 C   0  0  0  0  0  0  0  0  0  0  0  0
   -1.2298    0.2605   -0.9290 C   0  0  0  0  0  0  0  0  0  0  0  0
   -2.1407    0.4570    0.2650 C   0  0  0  0  0  0  0  0  0  0  0  0
   -3.2830    1.0963   -0.0500 F   0  0  0  0  0  0  0  0  0  0  0  0
   -2.4604   -0.7139    0.8553 F   0  0  0  0  0  0  0  0  0  0  0  0
   -1.5072    1.2030    1.2079 F   0  0  0  0  0  0  0  0  0  0  0  0
   -1.8617   -0.4346   -1.9114 F   0  0  0  0  0  0  0  0  0  0  0  0
   -0.8819    1.4649   -1.4680 F   0  0  0  0  0  0  0  0  0  0  0  0
   -0.2118   -1.6894    0.0128 F   0  0  0  0  0  0  0  0  0  0  0  0
    0.8159   -0.7110   -1.6271 F   0  0  0  0  0  0  0  0  0  0  0  0
    2.2634   -0.4476    0.5961 N   0  0  0  0  0  4  0  0  0  0  0  0
    0.5404    0.3312    1.4670 H   0  0  0  0  0  0  0  0  0  0  0  0
    1.2048    1.2861    0.0923 H   0  0  0  0  0  0  0  0  0  0  0  0
    2.7135   -0.5678   -0.3266 H   0  0  0  0  0  0  0  0  0  0  0  0
    2.1228   -1.3985    0.9728 H   0  0  0  0  0  0  0  0  0  0  0  0
    2.9276    0.0421    1.2109 H   0  0  0  0  0  0  0  0  0  0  0  0
  1  2  1  0
  2  3  1  0
  3  4  1  0
  4  5  1  0
  4  6  1  0
  4  7  1  0
  3  8  1  0
  3  9  1  0
  2 10  1  0
  2 11  1  0
  1 12  1  0
  1 13  1  0
  1 14  1  0
 12 15  1  0
 12 16  1  0
 12 17  1  0
M  CHG  1  12   1
M  END
