
     RDKit          3D

 34 35  0  0  0  0  0  0  0  0999 V2000
    3.3021   -1.0808    0.7707 C   0  0  0  0  0  0  0  0  0  0  0  0
    2.5608   -0.7652   -0.5233 C   0  0  0  0  0  0  0  0  0  0  0  0
    3.2746    0.2870   -1.3640 C   0  0  0  0  0  0  0  0  0  0  0  0
    1.1477   -0.4112   -0.2782 N   0  0  0  0  0  0  0  0  0  0  0  0
    0.1277   -1.1509   -0.7390 C   0  0  0  0  0  0  0  0  0  0  0  0
   -1.0360   -0.5957   -0.3683 N   0  0  0  0  0  4  0  0  0  0  0  0
   -2.3450   -1.1798   -0.7256 C   0  0  0  0  0  0  0  0  0  0  0  0
   -3.1262   -1.6239    0.5056 C   0  0  0  0  0  0  0  0  0  0  0  0
   -3.1537   -0.2562   -1.6292 C   0  0  0  0  0  0  0  0  0  0  0  0
   -0.7690    0.5601    0.3687 C   0  0  0  0  0  0  0  0  0  0  0  0
   -1.6104    1.4912    0.9761 C   0  0  0  0  0  0  0  0  0  0  0  0
   -0.9891    2.5512    1.6472 C   0  0  0  0  0  0  0  0  0  0  0  0
    0.4097    2.6694    1.7049 C   0  0  0  0  0  0  0  0  0  0  0  0
    1.2526    1.7331    1.0942 C   0  0  0  0  0  0  0  0  0  0  0  0
    0.6316    0.6784    0.4265 C   0  0  0  0  0  0  0  0  0  0  0  0
    3.4252   -0.1962    1.4011 H   0  0  0  0  0  0  0  0  0  0  0  0
    4.2998   -1.4782    0.5569 H   0  0  0  0  0  0  0  0  0  0  0  0
    2.7553   -1.8296    1.3534 H   0  0  0  0  0  0  0  0  0  0  0  0
    2.5460   -1.6902   -1.1157 H   0  0  0  0  0  0  0  0  0  0  0  0
    4.2713   -0.0617   -1.6540 H   0  0  0  0  0  0  0  0  0  0  0  0
    2.7085    0.4968   -2.2777 H   0  0  0  0  0  0  0  0  0  0  0  0
    3.3964    1.2308   -0.8262 H   0  0  0  0  0  0  0  0  0  0  0  0
    0.2285   -2.0587   -1.3219 H   0  0  0  0  0  0  0  0  0  0  0  0
   -2.1270   -2.0851   -1.3085 H   0  0  0  0  0  0  0  0  0  0  0  0
   -2.5112   -2.2746    1.1361 H   0  0  0  0  0  0  0  0  0  0  0  0
   -4.0223   -2.1814    0.2136 H   0  0  0  0  0  0  0  0  0  0  0  0
   -3.4468   -0.7769    1.1177 H   0  0  0  0  0  0  0  0  0  0  0  0
   -2.5580    0.0518   -2.4949 H   0  0  0  0  0  0  0  0  0  0  0  0
   -3.4756    0.6501   -1.1097 H   0  0  0  0  0  0  0  0  0  0  0  0
   -4.0508   -0.7650   -1.9973 H   0  0  0  0  0  0  0  0  0  0  0  0
   -2.6886    1.4096    0.9377 H   0  0  0  0  0  0  0  0  0  0  0  0
   -1.6050    3.3056    2.1385 H   0  0  0  0  0  0  0  0  0  0  0  0
    0.8482    3.5129    2.2397 H   0  0  0  0  0  0  0  0  0  0  0  0
    2.3286    1.8335    1.1447 H   0  0  0  0  0  0  0  0  0  0  0  0
  1  2  1  0
  2  3  1  0
  2  4  1  0
  4  5  1  0
  5  6  2  0
  6  7  1  0
  7  8  1  0
  7  9  1  0
  6 10  1  0
 10 11  2  0
 11 12  1  0
 12 13  2  0
 13 14  1  0
 14 15  2  0
 15  4  1  0
 15 10  1  0
  1 16  1  0
  1 17  1  0
  1 18  1  0
  2 19  1  0
  3 20  1  0
  3 21  1  0
  3 22  1  0
  5 23  1  0
  7 24  1  0
  8 25  1  0
  8 26  1  0
  8 27  1  0
  9 28  1  0
  9 29  1  0
  9 30  1  0
 11 31  1  0
 12 32  1  0
 13 33  1  0
 14 34  1  0
M  CHG  1   6   1
M  END
