
     RDKit          3D

 34 35  0  0  0  0  0  0  0  0999 V2000
    2.2833   -1.0404    2.2042 C   0  0  0  0  0  0  0  0  0  0  0  0
    2.3792   -0.4079    0.8191 C   0  0  0  0  0  0  0  0  0  0  0  0
    3.0511   -1.3466   -0.1784 C   0  0  0  0  0  0  0  0  0  0  0  0
    1.0448   -0.0034    0.3371 N   0  0  0  0  0  0  0  0  0  0  0  0
    0.0287   -0.8524    0.1188 C   0  0  0  0  0  0  0  0  0  0  0  0
   -1.0392   -0.1643   -0.3138 N   0  0  0  0  0  4  0  0  0  0  0  0
   -2.3395   -0.7720   -0.6547 C   0  0  0  0  0  0  0  0  0  0  0  0
   -2.9572   -1.4447    0.5674 C   0  0  0  0  0  0  0  0  0  0  0  0
   -2.1894   -1.7510   -1.8152 C   0  0  0  0  0  0  0  0  0  0  0  0
   -0.7099    1.1890   -0.3816 C   0  0  0  0  0  0  0  0  0  0  0  0
   -1.4523    2.3047   -0.7642 C   0  0  0  0  0  0  0  0  0  0  0  0
   -0.7904    3.5384   -0.7095 C   0  0  0  0  0  0  0  0  0  0  0  0
    0.5489    3.6417   -0.2912 C   0  0  0  0  0  0  0  0  0  0  0  0
    1.2902    2.5164    0.0924 C   0  0  0  0  0  0  0  0  0  0  0  0
    0.6264    1.2921    0.0358 C   0  0  0  0  0  0  0  0  0  0  0  0
    1.6986   -1.9659    2.1833 H   0  0  0  0  0  0  0  0  0  0  0  0
    1.7937   -0.3559    2.9049 H   0  0  0  0  0  0  0  0  0  0  0  0
    3.2783   -1.2760    2.5952 H   0  0  0  0  0  0  0  0  0  0  0  0
    3.0010    0.4897    0.9042 H   0  0  0  0  0  0  0  0  0  0  0  0
    2.4944   -2.2833   -0.2860 H   0  0  0  0  0  0  0  0  0  0  0  0
    3.1059   -0.8792   -1.1672 H   0  0  0  0  0  0  0  0  0  0  0  0
    4.0692   -1.5913    0.1411 H   0  0  0  0  0  0  0  0  0  0  0  0
    0.0647   -1.9247    0.2682 H   0  0  0  0  0  0  0  0  0  0  0  0
   -3.0183    0.0252   -0.9759 H   0  0  0  0  0  0  0  0  0  0  0  0
   -2.3410   -2.2776    0.9216 H   0  0  0  0  0  0  0  0  0  0  0  0
   -3.9540   -1.8340    0.3362 H   0  0  0  0  0  0  0  0  0  0  0  0
   -3.0518   -0.7297    1.3915 H   0  0  0  0  0  0  0  0  0  0  0  0
   -1.7395   -1.2531   -2.6807 H   0  0  0  0  0  0  0  0  0  0  0  0
   -3.1631   -2.1494   -2.1178 H   0  0  0  0  0  0  0  0  0  0  0  0
   -1.5452   -2.5950   -1.5477 H   0  0  0  0  0  0  0  0  0  0  0  0
   -2.4830    2.2305   -1.0868 H   0  0  0  0  0  0  0  0  0  0  0  0
   -1.3257    4.4439   -0.9983 H   0  0  0  0  0  0  0  0  0  0  0  0
    1.0206    4.6249   -0.2655 H   0  0  0  0  0  0  0  0  0  0  0  0
    2.3204    2.6012    0.4135 H   0  0  0  0  0  0  0  0  0  0  0  0
  1  2  1  0
  2  3  1  0
  2  4  1  0
  4  5  1  0
  5  6  2  0
  6  7  1  0
  7  8  1  0
  7  9  1  0
  6 10  1  0
 10 11  2  0
 11 12  1  0
 12 13  2  0
 13 14  1  0
 14 15  2  0
 15  4  1  0
 15 10  1  0
  1 16  1  0
  1 17  1  0
  1 18  1  0
  2 19  1  0
  3 20  1  0
  3 21  1  0
  3 22  1  0
  5 23  1  0
  7 24  1  0
  8 25  1  0
  8 26  1  0
  8 27  1  0
  9 28  1  0
  9 29  1  0
  9 30  1  0
 11 31  1  0
 12 32  1  0
 13 33  1  0
 14 34  1  0
M  CHG  1   6   1
M  END
