
     RDKit          3D

 34 35  0  0  0  0  0  0  0  0999 V2000
    2.9085   -1.0610    1.2527 C   0  0  0  0  0  0  0  0  0  0  0  0
    2.4897   -0.5343   -0.1166 C   0  0  0  0  0  0  0  0  0  0  0  0
    2.6803   -1.5885   -1.2029 C   0  0  0  0  0  0  0  0  0  0  0  0
    1.0926   -0.0615   -0.0883 N   0  0  0  0  0  0  0  0  0  0  0  0
    0.0338   -0.8419    0.1778 C   0  0  0  0  0  0  0  0  0  0  0  0
   -1.0859   -0.1042    0.1233 N   0  0  0  0  0  4  0  0  0  0  0  0
   -2.4430   -0.6310    0.3627 C   0  0  0  0  0  0  0  0  0  0  0  0
   -2.5697   -1.1683    1.7850 C   0  0  0  0  0  0  0  0  0  0  0  0
   -2.7979   -1.6959   -0.6706 C   0  0  0  0  0  0  0  0  0  0  0  0
   -0.7476    1.2116   -0.1908 C   0  0  0  0  0  0  0  0  0  0  0  0
   -1.5289    2.3527   -0.3634 C   0  0  0  0  0  0  0  0  0  0  0  0
   -0.8422    3.5321   -0.6806 C   0  0  0  0  0  0  0  0  0  0  0  0
    0.5577    3.5595   -0.8166 C   0  0  0  0  0  0  0  0  0  0  0  0
    1.3379    2.4089   -0.6420 C   0  0  0  0  0  0  0  0  0  0  0  0
    0.6493    1.2390   -0.3266 C   0  0  0  0  0  0  0  0  0  0  0  0
    2.3201   -1.9376    1.5427 H   0  0  0  0  0  0  0  0  0  0  0  0
    2.7595   -0.2942    2.0201 H   0  0  0  0  0  0  0  0  0  0  0  0
    3.9656   -1.3458    1.2544 H   0  0  0  0  0  0  0  0  0  0  0  0
    3.1360    0.3160   -0.3593 H   0  0  0  0  0  0  0  0  0  0  0  0
    3.7305   -1.8891   -1.2748 H   0  0  0  0  0  0  0  0  0  0  0  0
    2.0835   -2.4843   -1.0021 H   0  0  0  0  0  0  0  0  0  0  0  0
    2.3694   -1.1957   -2.1767 H   0  0  0  0  0  0  0  0  0  0  0  0
    0.0763   -1.9009    0.4013 H   0  0  0  0  0  0  0  0  0  0  0  0
   -3.1564    0.1926    0.2520 H   0  0  0  0  0  0  0  0  0  0  0  0
   -3.5948   -1.4939    1.9890 H   0  0  0  0  0  0  0  0  0  0  0  0
   -1.9028   -2.0203    1.9531 H   0  0  0  0  0  0  0  0  0  0  0  0
   -2.3057   -0.3933    2.5122 H   0  0  0  0  0  0  0  0  0  0  0  0
   -2.1394   -2.5671   -0.5917 H   0  0  0  0  0  0  0  0  0  0  0  0
   -3.8299   -2.0374   -0.5401 H   0  0  0  0  0  0  0  0  0  0  0  0
   -2.6958   -1.2951   -1.6845 H   0  0  0  0  0  0  0  0  0  0  0  0
   -2.6064    2.3368   -0.2598 H   0  0  0  0  0  0  0  0  0  0  0  0
   -1.4060    4.4545   -0.8264 H   0  0  0  0  0  0  0  0  0  0  0  0
    1.0467    4.5025   -1.0647 H   0  0  0  0  0  0  0  0  0  0  0  0
    2.4149    2.4353   -0.7477 H   0  0  0  0  0  0  0  0  0  0  0  0
  1  2  1  0
  2  3  1  0
  2  4  1  0
  4  5  1  0
  5  6  2  0
  6  7  1  0
  7  8  1  0
  7  9  1  0
  6 10  1  0
 10 11  2  0
 11 12  1  0
 12 13  2  0
 13 14  1  0
 14 15  2  0
 15  4  1  0
 15 10  1  0
  1 16  1  0
  1 17  1  0
  1 18  1  0
  2 19  1  0
  3 20  1  0
  3 21  1  0
  3 22  1  0
  5 23  1  0
  7 24  1  0
  8 25  1  0
  8 26  1  0
  8 27  1  0
  9 28  1  0
  9 29  1  0
  9 30  1  0
 11 31  1  0
 12 32  1  0
 13 33  1  0
 14 34  1  0
M  CHG  1   6   1
M  END
