
     RDKit          3D

 17 16  0  0  0  0  0  0  0  0999 V2000
   -0.7173   -1.3256    0.3885 C   0  0  0  0  0  0  0  0  0  0  0  0
   -0.3864   -0.0713   -0.4233 C   0  0  0  0  0  0  0  0  0  0  0  0
   -1.6434    0.7866   -0.5833 C   0  0  0  0  0  0  0  0  0  0  0  0
    0.7262    0.7647    0.2158 C   0  0  0  0  0  0  0  0  0  0  0  0
    1.9988    0.0041    0.2534 N   0  0  0  0  0  4  0  0  0  0  0  0
    0.1317   -2.0151    0.4233 H   0  0  0  0  0  0  0  0  0  0  0  0
   -0.9926   -1.0709    1.4176 H   0  0  0  0  0  0  0  0  0  0  0  0
   -1.5565   -1.8677   -0.0607 H   0  0  0  0  0  0  0  0  0  0  0  0
   -0.0656   -0.3872   -1.4244 H   0  0  0  0  0  0  0  0  0  0  0  0
   -1.4362    1.6696   -1.1972 H   0  0  0  0  0  0  0  0  0  0  0  0
   -2.0178    1.1286    0.3877 H   0  0  0  0  0  0  0  0  0  0  0  0
   -2.4419    0.2202   -1.0743 H   0  0  0  0  0  0  0  0  0  0  0  0
    0.9280    1.6698   -0.3657 H   0  0  0  0  0  0  0  0  0  0  0  0
    0.4938    1.0455    1.2479 H   0  0  0  0  0  0  0  0  0  0  0  0
    2.2704   -0.3290   -0.6812 H   0  0  0  0  0  0  0  0  0  0  0  0
    2.7673    0.5921    0.6026 H   0  0  0  0  0  0  0  0  0  0  0  0
    1.9416   -0.8142    0.8733 H   0  0  0  0  0  0  0  0  0  0  0  0
  1  2  1  0
  2  3  1  0
  2  4  1  0
  4  5  1  0
  1  6  1  0
  1  7  1  0
  1  8  1  0
  2  9  1  0
  3 10  1  0
  3 11  1  0
  3 12  1  0
  4 13  1  0
  4 14  1  0
  5 15  1  0
  5 16  1  0
  5 17  1  0
M  CHG  1   5   1
M  END
