
     RDKit          3D

 17 16  0  0  0  0  0  0  0  0999 V2000
   -1.4195    1.1342    0.5984 C   0  0  0  0  0  0  0  0  0  0  0  0
   -0.3291    0.0685    0.4697 C   0  0  0  0  0  0  0  0  0  0  0  0
   -0.9419   -1.2386   -0.0381 C   0  0  0  0  0  0  0  0  0  0  0  0
    0.7876    0.5859   -0.4416 C   0  0  0  0  0  0  0  0  0  0  0  0
    1.9242   -0.3663   -0.4719 N   0  0  0  0  0  4  0  0  0  0  0  0
   -2.2118    0.8012    1.2774 H   0  0  0  0  0  0  0  0  0  0  0  0
   -1.0073    2.0660    1.0000 H   0  0  0  0  0  0  0  0  0  0  0  0
   -1.8759    1.3557   -0.3725 H   0  0  0  0  0  0  0  0  0  0  0  0
    0.0826   -0.1137    1.4708 H   0  0  0  0  0  0  0  0  0  0  0  0
   -1.3214   -1.1282   -1.0596 H   0  0  0  0  0  0  0  0  0  0  0  0
   -1.7766   -1.5488    0.6000 H   0  0  0  0  0  0  0  0  0  0  0  0
   -0.2103   -2.0523   -0.0321 H   0  0  0  0  0  0  0  0  0  0  0  0
    0.4534    0.7140   -1.4761 H   0  0  0  0  0  0  0  0  0  0  0  0
    1.1931    1.5344   -0.0753 H   0  0  0  0  0  0  0  0  0  0  0  0
    2.7099    0.0176   -1.0136 H   0  0  0  0  0  0  0  0  0  0  0  0
    1.6672   -1.2609   -0.9090 H   0  0  0  0  0  0  0  0  0  0  0  0
    2.2758   -0.5688    0.4733 H   0  0  0  0  0  0  0  0  0  0  0  0
  1  2  1  0
  2  3  1  0
  2  4  1  0
  4  5  1  0
  1  6  1  0
  1  7  1  0
  1  8  1  0
  2  9  1  0
  3 10  1  0
  3 11  1  0
  3 12  1  0
  4 13  1  0
  4 14  1  0
  5 15  1  0
  5 16  1  0
  5 17  1  0
M  CHG  1   5   1
M  END
