
     RDKit          3D

 24 24  0  0  0  0  0  0  0  0999 V2000
   -0.5790   -1.9691   -0.3049 C   0  0  0  0  0  0  0  0  0  0  0  0
   -1.5184   -0.9439   -0.4152 C   0  0  0  0  0  0  0  0  0  0  0  0
   -1.1202    0.3987   -0.3458 C   0  0  0  0  0  0  0  0  0  0  0  0
    0.2504    0.6849   -0.1682 C   0  0  0  0  0  0  0  0  0  0  0  0
    1.2109   -0.3443   -0.0659 C   0  0  0  0  0  0  0  0  0  0  0  0
    0.7743   -1.6746   -0.1399 C   0  0  0  0  0  0  0  0  0  0  0  0
    2.6835   -0.0284    0.0381 C   0  0  0  0  0  0  0  0  0  0  0  0
    3.3303   -0.6370    1.2223 N   0  0  0  0  0  4  0  0  0  0  0  0
   -2.1286    1.5053   -0.5397 C   0  0  0  0  0  0  0  0  0  0  0  0
   -3.2434    1.4582    0.4329 N   0  0  0  0  0  4  0  0  0  0  0  0
   -0.9009   -3.0084   -0.3836 H   0  0  0  0  0  0  0  0  0  0  0  0
   -2.5555   -1.2241   -0.5956 H   0  0  0  0  0  0  0  0  0  0  0  0
    0.5799    1.7256   -0.1492 H   0  0  0  0  0  0  0  0  0  0  0  0
    1.4746   -2.5087   -0.1117 H   0  0  0  0  0  0  0  0  0  0  0  0
    3.2163   -0.3945   -0.8455 H   0  0  0  0  0  0  0  0  0  0  0  0
    2.8516    1.0500    0.1238 H   0  0  0  0  0  0  0  0  0  0  0  0
    2.8673   -0.3566    2.0950 H   0  0  0  0  0  0  0  0  0  0  0  0
    3.3156   -1.6633    1.1796 H   0  0  0  0  0  0  0  0  0  0  0  0
    4.3177   -0.3557    1.2900 H   0  0  0  0  0  0  0  0  0  0  0  0
   -2.5696    1.4497   -1.5403 H   0  0  0  0  0  0  0  0  0  0  0  0
   -1.6642    2.4893   -0.4185 H   0  0  0  0  0  0  0  0  0  0  0  0
   -3.8795    2.2570    0.3057 H   0  0  0  0  0  0  0  0  0  0  0  0
   -3.8088    0.6074    0.3241 H   0  0  0  0  0  0  0  0  0  0  0  0
   -2.9043    1.4830    1.4020 H   0  0  0  0  0  0  0  0  0  0  0  0
  1  2  2  0
  2  3  1  0
  3  4  2  0
  4  5  1  0
  5  6  2  0
  5  7  1  0
  7  8  1  0
  3  9  1  0
  9 10  1  0
  6  1  1  0
  1 11  1  0
  2 12  1  0
  4 13  1  0
  6 14  1  0
  7 15  1  0
  7 16  1  0
  8 17  1  0
  8 18  1  0
  8 19  1  0
  9 20  1  0
  9 21  1  0
 10 22  1  0
 10 23  1  0
 10 24  1  0
M  CHG  2   8   1  10   1
M  END
