
     RDKit          3D

  8  7  0  0  0  0  0  0  0  0999 V2000
    0.7417    0.0483    0.1216 C   0  0  0  0  0  0  0  0  0  0  0  0
   -0.7115   -0.0464   -0.1167 N   0  0  0  0  0  4  0  0  0  0  0  0
    1.2253   -0.7517   -0.4420 H   0  0  0  0  0  0  0  0  0  0  0  0
    0.9125   -0.0679    1.1935 H   0  0  0  0  0  0  0  0  0  0  0  0
    1.0737    1.0288   -0.2248 H   0  0  0  0  0  0  0  0  0  0  0  0
   -1.0835   -0.9543    0.1918 H   0  0  0  0  0  0  0  0  0  0  0  0
   -1.2232    0.6866    0.3919 H   0  0  0  0  0  0  0  0  0  0  0  0
   -0.9350    0.0564   -1.1154 H   0  0  0  0  0  0  0  0  0  0  0  0
  1  2  1  0
  1  3  1  0
  1  4  1  0
  1  5  1  0
  2  6  1  0
  2  7  1  0
  2  8  1  0
M  CHG  1   2   1
M  END
