
     RDKit          3D

  8  7  0  0  0  0  0  0  0  0999 V2000
   -0.7503   -0.0226   -0.0616 C   0  0  0  0  0  0  0  0  0  0  0  0
    0.7198    0.0217    0.0591 N   0  0  0  0  0  4  0  0  0  0  0  0
   -1.0622    0.8352   -0.6603 H   0  0  0  0  0  0  0  0  0  0  0  0
   -1.0170   -0.9610   -0.5514 H   0  0  0  0  0  0  0  0  0  0  0  0
   -1.1696    0.0278    0.9450 H   0  0  0  0  0  0  0  0  0  0  0  0
    1.0323    0.8885    0.5160 H   0  0  0  0  0  0  0  0  0  0  0  0
    1.1730   -0.0228   -0.8631 H   0  0  0  0  0  0  0  0  0  0  0  0
    1.0740   -0.7669    0.6163 H   0  0  0  0  0  0  0  0  0  0  0  0
  1  2  1  0
  1  3  1  0
  1  4  1  0
  1  5  1  0
  2  6  1  0
  2  7  1  0
  2  8  1  0
M  CHG  1   2   1
M  END
