
     RDKit          3D

  8  7  0  0  0  0  0  0  0  0999 V2000
   -0.7504   -0.0211   -0.0609 C   0  0  0  0  0  0  0  0  0  0  0  0
    0.7199    0.0203    0.0584 N   0  0  0  0  0  4  0  0  0  0  0  0
   -1.1171    1.0065   -0.0288 H   0  0  0  0  0  0  0  0  0  0  0  0
   -0.9949   -0.4957   -1.0130 H   0  0  0  0  0  0  0  0  0  0  0  0
   -1.1372   -0.6024    0.7783 H   0  0  0  0  0  0  0  0  0  0  0  0
    1.0120    0.4595    0.9413 H   0  0  0  0  0  0  0  0  0  0  0  0
    1.1246   -0.9250    0.0343 H   0  0  0  0  0  0  0  0  0  0  0  0
    1.1431    0.5578   -0.7095 H   0  0  0  0  0  0  0  0  0  0  0  0
  1  2  1  0
  1  3  1  0
  1  4  1  0
  1  5  1  0
  2  6  1  0
  2  7  1  0
  2  8  1  0
M  CHG  1   2   1
M  END
