
     RDKit          3D

 30 30  0  0  0  0  0  0  0  0999 V2000
   -0.7834    2.5872   -0.5387 C   0  0  0  0  0  0  0  0  0  0  0  0
   -1.2459    1.3173   -0.8767 C   0  0  0  0  0  0  0  0  0  0  0  0
   -0.6224    0.1544   -0.3813 C   0  0  0  0  0  0  0  0  0  0  0  0
    0.5825    0.2948    0.3607 C   0  0  0  0  0  0  0  0  0  0  0  0
    0.9882    1.5888    0.7450 C   0  0  0  0  0  0  0  0  0  0  0  0
    0.3126    2.7222    0.2983 C   0  0  0  0  0  0  0  0  0  0  0  0
    1.4205   -0.9060    0.7797 C   0  0  0  0  0  0  0  0  0  0  0  0
    2.9461   -0.7038    0.8559 C   0  0  0  0  0  0  0  0  0  0  0  0
    3.5015   -0.2726   -0.4553 N   0  0  0  0  0  4  0  0  0  0  0  0
   -1.2332   -1.2075   -0.6844 C   0  0  0  0  0  0  0  0  0  0  0  0
   -2.7700   -1.2840   -0.7658 C   0  0  0  0  0  0  0  0  0  0  0  0
   -3.4025   -0.8414    0.5061 N   0  0  0  0  0  4  0  0  0  0  0  0
   -1.2867    3.4760   -0.9186 H   0  0  0  0  0  0  0  0  0  0  0  0
   -2.1050    1.2730   -1.5440 H   0  0  0  0  0  0  0  0  0  0  0  0
    1.8364    1.7560    1.4067 H   0  0  0  0  0  0  0  0  0  0  0  0
    0.6490    3.7160    0.5930 H   0  0  0  0  0  0  0  0  0  0  0  0
    1.2542   -1.7265    0.0717 H   0  0  0  0  0  0  0  0  0  0  0  0
    1.0584   -1.2428    1.7586 H   0  0  0  0  0  0  0  0  0  0  0  0
    3.2370    0.0525    1.5897 H   0  0  0  0  0  0  0  0  0  0  0  0
    3.4452   -1.6443    1.1096 H   0  0  0  0  0  0  0  0  0  0  0  0
    4.5162   -0.1043   -0.3888 H   0  0  0  0  0  0  0  0  0  0  0  0
    3.0773    0.6063   -0.7867 H   0  0  0  0  0  0  0  0  0  0  0  0
    3.3669   -0.9768   -1.1927 H   0  0  0  0  0  0  0  0  0  0  0  0
   -0.9308   -1.9194    0.0927 H   0  0  0  0  0  0  0  0  0  0  0  0
   -0.8102   -1.5616   -1.6322 H   0  0  0  0  0  0  0  0  0  0  0  0
   -3.1836   -0.6592   -1.5619 H   0  0  0  0  0  0  0  0  0  0  0  0
   -3.0942   -2.3163   -0.9302 H   0  0  0  0  0  0  0  0  0  0  0  0
   -3.1518   -1.4420    1.3024 H   0  0  0  0  0  0  0  0  0  0  0  0
   -4.4304   -0.8606    0.4332 H   0  0  0  0  0  0  0  0  0  0  0  0
   -3.1418    0.1245    0.7540 H   0  0  0  0  0  0  0  0  0  0  0  0
  1  2  2  0
  2  3  1  0
  3  4  2  0
  4  5  1  0
  5  6  2  0
  4  7  1  0
  7  8  1  0
  8  9  1  0
  3 10  1  0
 10 11  1  0
 11 12  1  0
  6  1  1  0
  1 13  1  0
  2 14  1  0
  5 15  1  0
  6 16  1  0
  7 17  1  0
  7 18  1  0
  8 19  1  0
  8 20  1  0
  9 21  1  0
  9 22  1  0
  9 23  1  0
 10 24  1  0
 10 25  1  0
 11 26  1  0
 11 27  1  0
 12 28  1  0
 12 29  1  0
 12 30  1  0
M  CHG  2   9   1  12   1
M  END
