
     RDKit          3D

 29 28  0  0  0  0  0  0  0  0999 V2000
   -4.5233    0.5572    0.1130 C   0  0  0  0  0  0  0  0  0  0  0  0
   -3.0040    0.5607    0.1880 C   0  0  0  0  0  0  0  0  0  0  0  0
   -2.4102   -0.6790   -0.4820 C   0  0  0  0  0  0  0  0  0  0  0  0
   -0.8788   -0.6690   -0.5304 C   0  0  0  0  0  0  0  0  0  0  0  0
   -0.2296   -0.7368    0.8544 C   0  0  0  0  0  0  0  0  0  0  0  0
    1.2862   -0.9538    0.8025 C   0  0  0  0  0  0  0  0  0  0  0  0
    2.0463    0.2156    0.1733 C   0  0  0  0  0  0  0  0  0  0  0  0
    3.5499   -0.0084    0.2522 C   0  0  0  0  0  0  0  0  0  0  0  0
    4.2461    1.1442   -0.3686 N   0  0  0  0  0  4  0  0  0  0  0  0
   -4.8652    0.5537   -0.9269 H   0  0  0  0  0  0  0  0  0  0  0  0
   -4.9287    1.4494    0.6004 H   0  0  0  0  0  0  0  0  0  0  0  0
   -4.9385   -0.3227    0.6148 H   0  0  0  0  0  0  0  0  0  0  0  0
   -2.6225    1.4662   -0.2978 H   0  0  0  0  0  0  0  0  0  0  0  0
   -2.7058    0.6043    1.2409 H   0  0  0  0  0  0  0  0  0  0  0  0
   -2.7561   -1.5819    0.0358 H   0  0  0  0  0  0  0  0  0  0  0  0
   -2.7840   -0.7438   -1.5115 H   0  0  0  0  0  0  0  0  0  0  0  0
   -0.5437    0.2291   -1.0616 H   0  0  0  0  0  0  0  0  0  0  0  0
   -0.5503   -1.5312   -1.1238 H   0  0  0  0  0  0  0  0  0  0  0  0
   -0.4407    0.1801    1.4162 H   0  0  0  0  0  0  0  0  0  0  0  0
   -0.6740   -1.5657    1.4191 H   0  0  0  0  0  0  0  0  0  0  0  0
    1.5072   -1.8775    0.2538 H   0  0  0  0  0  0  0  0  0  0  0  0
    1.6449   -1.1035    1.8286 H   0  0  0  0  0  0  0  0  0  0  0  0
    1.7820    1.1465    0.6900 H   0  0  0  0  0  0  0  0  0  0  0  0
    1.7521    0.3336   -0.8759 H   0  0  0  0  0  0  0  0  0  0  0  0
    3.8607   -0.9012   -0.2985 H   0  0  0  0  0  0  0  0  0  0  0  0
    3.9017   -0.0718    1.2861 H   0  0  0  0  0  0  0  0  0  0  0  0
    5.2669    1.0239   -0.3311 H   0  0  0  0  0  0  0  0  0  0  0  0
    4.0240    2.0258    0.1129 H   0  0  0  0  0  0  0  0  0  0  0  0
    3.9873    1.2560   -1.3580 H   0  0  0  0  0  0  0  0  0  0  0  0
  1  2  1  0
  2  3  1  0
  3  4  1  0
  4  5  1  0
  5  6  1  0
  6  7  1  0
  7  8  1  0
  8  9  1  0
  1 10  1  0
  1 11  1  0
  1 12  1  0
  2 13  1  0
  2 14  1  0
  3 15  1  0
  3 16  1  0
  4 17  1  0
  4 18  1  0
  5 19  1  0
  5 20  1  0
  6 21  1  0
  6 22  1  0
  7 23  1  0
  7 24  1  0
  8 25  1  0
  8 26  1  0
  9 27  1  0
  9 28  1  0
  9 29  1  0
M  CHG  1   9   1
M  END
