
     RDKit          3D

 29 28  0  0  0  0  0  0  0  0999 V2000
   -4.7328    0.4523    0.1099 C   0  0  0  0  0  0  0  0  0  0  0  0
   -3.3081    0.6895   -0.3651 C   0  0  0  0  0  0  0  0  0  0  0  0
   -2.3718   -0.4287    0.0922 C   0  0  0  0  0  0  0  0  0  0  0  0
   -0.9390   -0.1866   -0.3884 C   0  0  0  0  0  0  0  0  0  0  0  0
   -0.0033   -1.3056    0.0743 C   0  0  0  0  0  0  0  0  0  0  0  0
    1.4205   -1.1749   -0.4742 C   0  0  0  0  0  0  0  0  0  0  0  0
    2.1667    0.0518    0.0544 C   0  0  0  0  0  0  0  0  0  0  0  0
    3.6087    0.0624   -0.4336 C   0  0  0  0  0  0  0  0  0  0  0  0
    4.2929    1.2653    0.0988 N   0  0  0  0  0  4  0  0  0  0  0  0
   -5.1272   -0.4885   -0.2871 H   0  0  0  0  0  0  0  0  0  0  0  0
   -4.7802    0.4113    1.2028 H   0  0  0  0  0  0  0  0  0  0  0  0
   -5.3850    1.2636   -0.2281 H   0  0  0  0  0  0  0  0  0  0  0  0
   -2.9556    1.6525    0.0224 H   0  0  0  0  0  0  0  0  0  0  0  0
   -3.3005    0.7575   -1.4592 H   0  0  0  0  0  0  0  0  0  0  0  0
   -2.7320   -1.3899   -0.2944 H   0  0  0  0  0  0  0  0  0  0  0  0
   -2.3855   -0.4951    1.1870 H   0  0  0  0  0  0  0  0  0  0  0  0
   -0.5910    0.7781   -0.0026 H   0  0  0  0  0  0  0  0  0  0  0  0
   -0.9249   -0.1243   -1.4831 H   0  0  0  0  0  0  0  0  0  0  0  0
    0.0261   -1.3347    1.1704 H   0  0  0  0  0  0  0  0  0  0  0  0
   -0.4086   -2.2702   -0.2560 H   0  0  0  0  0  0  0  0  0  0  0  0
    1.3913   -1.1469   -1.5704 H   0  0  0  0  0  0  0  0  0  0  0  0
    1.9771   -2.0788   -0.1967 H   0  0  0  0  0  0  0  0  0  0  0  0
    2.1460    0.0504    1.1512 H   0  0  0  0  0  0  0  0  0  0  0  0
    1.6657    0.9684   -0.2772 H   0  0  0  0  0  0  0  0  0  0  0  0
    4.1696   -0.8058   -0.0755 H   0  0  0  0  0  0  0  0  0  0  0  0
    3.6717    0.1179   -1.5244 H   0  0  0  0  0  0  0  0  0  0  0  0
    3.8381    2.1321   -0.2177 H   0  0  0  0  0  0  0  0  0  0  0  0
    4.2988    1.2745    1.1275 H   0  0  0  0  0  0  0  0  0  0  0  0
    5.2724    1.3023   -0.2131 H   0  0  0  0  0  0  0  0  0  0  0  0
  1  2  1  0
  2  3  1  0
  3  4  1  0
  4  5  1  0
  5  6  1  0
  6  7  1  0
  7  8  1  0
  8  9  1  0
  1 10  1  0
  1 11  1  0
  1 12  1  0
  2 13  1  0
  2 14  1  0
  3 15  1  0
  3 16  1  0
  4 17  1  0
  4 18  1  0
  5 19  1  0
  5 20  1  0
  6 21  1  0
  6 22  1  0
  7 23  1  0
  7 24  1  0
  8 25  1  0
  8 26  1  0
  9 27  1  0
  9 28  1  0
  9 29  1  0
M  CHG  1   9   1
M  END
