
     RDKit          3D

 57 56  0  0  0  0  0  0  0  0999 V2000
   -7.1048   -0.8830    2.7254 C   0  0  0  0  0  0  0  0  0  0  0  0
   -6.0320   -0.7068    1.6615 C   0  0  0  0  0  0  0  0  0  0  0  0
   -6.4770   -1.2902    0.3195 C   0  0  0  0  0  0  0  0  0  0  0  0
   -5.3824   -1.2519   -0.7517 C   0  0  0  0  0  0  0  0  0  0  0  0
   -4.9879    0.1687   -1.1636 C   0  0  0  0  0  0  0  0  0  0  0  0
   -4.0389    0.2083   -2.3665 C   0  0  0  0  0  0  0  0  0  0  0  0
   -2.7003   -0.5172   -2.1808 C   0  0  0  0  0  0  0  0  0  0  0  0
   -1.8502   -0.0506   -0.9949 C   0  0  0  0  0  0  0  0  0  0  0  0
   -1.4483    1.3950   -1.0842 C   0  0  0  0  0  0  0  0  0  0  0  0
   -0.2400    1.8813   -1.4114 C   0  0  0  0  0  0  0  0  0  0  0  0
    0.9696    1.0906   -1.8220 C   0  0  0  0  0  0  0  0  0  0  0  0
    1.9777    0.8951   -0.6840 C   0  0  0  0  0  0  0  0  0  0  0  0
    2.6587    2.1946   -0.2481 C   0  0  0  0  0  0  0  0  0  0  0  0
    3.5833    2.0423    0.9660 C   0  0  0  0  0  0  0  0  0  0  0  0
    4.7928    1.1268    0.7427 C   0  0  0  0  0  0  0  0  0  0  0  0
    4.5749   -0.2882    1.2890 C   0  0  0  0  0  0  0  0  0  0  0  0
    5.7279   -1.2445    0.9696 C   0  0  0  0  0  0  0  0  0  0  0  0
    7.0343   -0.8524    1.6454 C   0  0  0  0  0  0  0  0  0  0  0  0
    8.0560   -1.8904    1.3612 N   0  0  0  0  0  4  0  0  0  0  0  0
   -7.3142   -1.9431    2.8987 H   0  0  0  0  0  0  0  0  0  0  0  0
   -8.0369   -0.3924    2.4281 H   0  0  0  0  0  0  0  0  0  0  0  0
   -6.7757   -0.4434    3.6721 H   0  0  0  0  0  0  0  0  0  0  0  0
   -5.8137    0.3613    1.5583 H   0  0  0  0  0  0  0  0  0  0  0  0
   -5.1108   -1.1982    1.9954 H   0  0  0  0  0  0  0  0  0  0  0  0
   -7.3647   -0.7556   -0.0409 H   0  0  0  0  0  0  0  0  0  0  0  0
   -6.7760   -2.3359    0.4645 H   0  0  0  0  0  0  0  0  0  0  0  0
   -5.7477   -1.7920   -1.6340 H   0  0  0  0  0  0  0  0  0  0  0  0
   -4.5056   -1.7978   -0.3853 H   0  0  0  0  0  0  0  0  0  0  0  0
   -5.8934    0.7299   -1.4271 H   0  0  0  0  0  0  0  0  0  0  0  0
   -4.5321    0.6972   -0.3197 H   0  0  0  0  0  0  0  0  0  0  0  0
   -3.8520    1.2567   -2.6283 H   0  0  0  0  0  0  0  0  0  0  0  0
   -4.5489   -0.2311   -3.2331 H   0  0  0  0  0  0  0  0  0  0  0  0
   -2.8840   -1.5933   -2.0759 H   0  0  0  0  0  0  0  0  0  0  0  0
   -2.1181   -0.4026   -3.1046 H   0  0  0  0  0  0  0  0  0  0  0  0
   -2.3906   -0.2047   -0.0539 H   0  0  0  0  0  0  0  0  0  0  0  0
   -0.9661   -0.6945   -0.9257 H   0  0  0  0  0  0  0  0  0  0  0  0
   -2.2298    2.1120   -0.8317 H   0  0  0  0  0  0  0  0  0  0  0  0
   -0.1171    2.9642   -1.4129 H   0  0  0  0  0  0  0  0  0  0  0  0
    1.4524    1.6024   -2.6637 H   0  0  0  0  0  0  0  0  0  0  0  0
    0.6739    0.1076   -2.2057 H   0  0  0  0  0  0  0  0  0  0  0  0
    1.4797    0.4291    0.1753 H   0  0  0  0  0  0  0  0  0  0  0  0
    2.7405    0.1911   -1.0363 H   0  0  0  0  0  0  0  0  0  0  0  0
    3.2289    2.6067   -1.0899 H   0  0  0  0  0  0  0  0  0  0  0  0
    1.8996    2.9422    0.0099 H   0  0  0  0  0  0  0  0  0  0  0  0
    3.9610    3.0449    1.2052 H   0  0  0  0  0  0  0  0  0  0  0  0
    3.0051    1.7175    1.8393 H   0  0  0  0  0  0  0  0  0  0  0  0
    5.0610    1.0939   -0.3195 H   0  0  0  0  0  0  0  0  0  0  0  0
    5.6468    1.5705    1.2686 H   0  0  0  0  0  0  0  0  0  0  0  0
    3.6572   -0.7145    0.8714 H   0  0  0  0  0  0  0  0  0  0  0  0
    4.4299   -0.2429    2.3754 H   0  0  0  0  0  0  0  0  0  0  0  0
    5.4376   -2.2504    1.2983 H   0  0  0  0  0  0  0  0  0  0  0  0
    5.8685   -1.2990   -0.1169 H   0  0  0  0  0  0  0  0  0  0  0  0
    6.9324   -0.7986    2.7333 H   0  0  0  0  0  0  0  0  0  0  0  0
    7.4361    0.0898    1.2639 H   0  0  0  0  0  0  0  0  0  0  0  0
    8.9539   -1.6559    1.8053 H   0  0  0  0  0  0  0  0  0  0  0  0
    7.7701   -2.8124    1.7176 H   0  0  0  0  0  0  0  0  0  0  0  0
    8.2290   -1.9862    0.3515 H   0  0  0  0  0  0  0  0  0  0  0  0
  1  2  1  0
  2  3  1  0
  3  4  1  0
  4  5  1  0
  5  6  1  0
  6  7  1  0
  7  8  1  0
  8  9  1  0
  9 10  2  0
 10 11  1  0
 11 12  1  0
 12 13  1  0
 13 14  1  0
 14 15  1  0
 15 16  1  0
 16 17  1  0
 17 18  1  0
 18 19  1  0
  1 20  1  0
  1 21  1  0
  1 22  1  0
  2 23  1  0
  2 24  1  0
  3 25  1  0
  3 26  1  0
  4 27  1  0
  4 28  1  0
  5 29  1  0
  5 30  1  0
  6 31  1  0
  6 32  1  0
  7 33  1  0
  7 34  1  0
  8 35  1  0
  8 36  1  0
  9 37  1  0
 10 38  1  0
 11 39  1  0
 11 40  1  0
 12 41  1  0
 12 42  1  0
 13 43  1  0
 13 44  1  0
 14 45  1  0
 14 46  1  0
 15 47  1  0
 15 48  1  0
 16 49  1  0
 16 50  1  0
 17 51  1  0
 17 52  1  0
 18 53  1  0
 18 54  1  0
 19 55  1  0
 19 56  1  0
 19 57  1  0
M  CHG  1  19   1
M  END
