
     RDKit          3D

 17 16  0  0  0  0  0  0  0  0999 V2000
    0.0500    0.1254    0.5231 C   0  0  0  0  0  0  0  0  0  0  0  0
    1.1553   -0.4020   -0.3989 C   0  0  0  0  0  0  0  0  0  0  0  0
    2.4909   -0.2277    0.2281 N   0  0  0  0  0  4  0  0  0  0  0  0
   -1.3348   -0.0480   -0.1113 C   0  0  0  0  0  0  0  0  0  0  0  0
   -2.3956    0.4669    0.7925 N   0  0  0  0  0  4  0  0  0  0  0  0
    0.2258    1.1864    0.7394 H   0  0  0  0  0  0  0  0  0  0  0  0
    0.0851   -0.4067    1.4819 H   0  0  0  0  0  0  0  0  0  0  0  0
    1.0377   -1.4718   -0.5952 H   0  0  0  0  0  0  0  0  0  0  0  0
    1.1803    0.1425   -1.3476 H   0  0  0  0  0  0  0  0  0  0  0  0
    3.2363   -0.5836   -0.3943 H   0  0  0  0  0  0  0  0  0  0  0  0
    2.6048   -0.7452    1.1131 H   0  0  0  0  0  0  0  0  0  0  0  0
    2.7375    0.7566    0.4133 H   0  0  0  0  0  0  0  0  0  0  0  0
   -1.4204    0.5122   -1.0472 H   0  0  0  0  0  0  0  0  0  0  0  0
   -1.5629   -1.1022   -0.2948 H   0  0  0  0  0  0  0  0  0  0  0  0
   -2.4466   -0.0271    1.6967 H   0  0  0  0  0  0  0  0  0  0  0  0
   -2.3140    1.4747    0.9968 H   0  0  0  0  0  0  0  0  0  0  0  0
   -3.3296    0.3497    0.3642 H   0  0  0  0  0  0  0  0  0  0  0  0
  1  2  1  0
  2  3  1  0
  1  4  1  0
  4  5  1  0
  1  6  1  0
  1  7  1  0
  2  8  1  0
  2  9  1  0
  3 10  1  0
  3 11  1  0
  3 12  1  0
  4 13  1  0
  4 14  1  0
  5 15  1  0
  5 16  1  0
  5 17  1  0
M  CHG  2   3   1   5   1
M  END
