
     RDKit          3D

 18 18  0  0  0  0  0  0  0  0999 V2000
   -1.1359    0.5310   -0.7184 C   0  0  0  0  0  0  0  0  0  0  0  0
   -0.1301    1.4921   -0.0790 C   0  0  0  0  0  0  0  0  0  0  0  0
    0.9775    0.7885    0.6959 C   0  0  0  0  0  0  0  0  0  0  0  0
    1.2852   -0.5114    0.0375 N   0  0  0  0  0  4  0  0  0  0  0  0
    0.1614   -1.4993    0.0638 C   0  0  0  0  0  0  0  0  0  0  0  0
   -1.1933   -0.7983    0.0229 C   0  0  0  0  0  0  0  0  0  0  0  0
   -2.1274    0.9968   -0.7458 H   0  0  0  0  0  0  0  0  0  0  0  0
   -0.8486    0.3471   -1.7615 H   0  0  0  0  0  0  0  0  0  0  0  0
    0.3054    2.1197   -0.8662 H   0  0  0  0  0  0  0  0  0  0  0  0
   -0.6503    2.1779    0.6004 H   0  0  0  0  0  0  0  0  0  0  0  0
    0.6847    0.5683    1.7280 H   0  0  0  0  0  0  0  0  0  0  0  0
    1.8984    1.3791    0.7059 H   0  0  0  0  0  0  0  0  0  0  0  0
    1.5566   -0.3323   -0.9397 H   0  0  0  0  0  0  0  0  0  0  0  0
    2.1149   -0.9335    0.4769 H   0  0  0  0  0  0  0  0  0  0  0  0
    0.2695   -2.0966    0.9748 H   0  0  0  0  0  0  0  0  0  0  0  0
    0.3055   -2.1483   -0.8056 H   0  0  0  0  0  0  0  0  0  0  0  0
   -1.5393   -0.6202    1.0492 H   0  0  0  0  0  0  0  0  0  0  0  0
   -1.9341   -1.4606   -0.4392 H   0  0  0  0  0  0  0  0  0  0  0  0
  1  2  1  0
  2  3  1  0
  3  4  1  0
  4  5  1  0
  5  6  1  0
  6  1  1  0
  1  7  1  0
  1  8  1  0
  2  9  1  0
  2 10  1  0
  3 11  1  0
  3 12  1  0
  4 13  1  0
  4 14  1  0
  5 15  1  0
  5 16  1  0
  6 17  1  0
  6 18  1  0
M  CHG  1   4   1
M  END
