
     RDKit          3D

 21 21  0  0  0  0  0  0  0  0999 V2000
   -1.2563    1.7819   -0.8005 C   0  0  0  0  0  0  0  0  0  0  0  0
   -1.2623    0.2986   -0.4778 N   0  0  0  0  0  4  0  0  0  0  0  0
   -1.5534   -0.4895   -1.7424 C   0  0  0  0  0  0  0  0  0  0  0  0
    0.0134   -0.1132    0.2210 C   0  0  0  0  0  0  0  0  0  0  0  0
    0.4815    0.6195    1.3285 C   0  0  0  0  0  0  0  0  0  0  0  0
    1.6657    0.2643    1.9819 C   0  0  0  0  0  0  0  0  0  0  0  0
    2.4030   -0.8285    1.5410 C   0  0  0  0  0  0  0  0  0  0  0  0
    1.9569   -1.5676    0.4505 C   0  0  0  0  0  0  0  0  0  0  0  0
    0.7715   -1.2146   -0.2057 C   0  0  0  0  0  0  0  0  0  0  0  0
   -2.8703   -0.0945    0.8442 I   0  0  0  0  0  1  0  0  0  0  0  0
   -0.3789    1.9917   -1.4215 H   0  0  0  0  0  0  0  0  0  0  0  0
   -1.2254    2.3797    0.1150 H   0  0  0  0  0  0  0  0  0  0  0  0
   -2.1646    2.0265   -1.3623 H   0  0  0  0  0  0  0  0  0  0  0  0
   -2.4813   -0.1157   -2.1905 H   0  0  0  0  0  0  0  0  0  0  0  0
   -0.7323   -0.3260   -2.4487 H   0  0  0  0  0  0  0  0  0  0  0  0
   -1.6625   -1.5542   -1.5097 H   0  0  0  0  0  0  0  0  0  0  0  0
   -0.0620    1.4728    1.7238 H   0  0  0  0  0  0  0  0  0  0  0  0
    2.0124    0.8388    2.8395 H   0  0  0  0  0  0  0  0  0  0  0  0
    3.3247   -1.1071    2.0497 H   0  0  0  0  0  0  0  0  0  0  0  0
    2.5356   -2.4253    0.1098 H   0  0  0  0  0  0  0  0  0  0  0  0
    0.4847   -1.8377   -1.0457 H   0  0  0  0  0  0  0  0  0  0  0  0
  1  2  1  0
  2  3  1  0
  2  4  1  0
  4  5  2  0
  5  6  1  0
  6  7  2  0
  7  8  1  0
  8  9  2  0
  2 10  1  0
  9  4  1  0
  1 11  1  0
  1 12  1  0
  1 13  1  0
  3 14  1  0
  3 15  1  0
  3 16  1  0
  5 17  1  0
  6 18  1  0
  7 19  1  0
  8 20  1  0
  9 21  1  0
M  CHG  2   2   1  10  -1
M  RAD  1  10   2
M  END
