
     RDKit          3D

 20 21  0  0  0  0  0  0  0  0999 V2000
   -0.6280    2.0562   -0.1251 C   0  0  0  0  0  0  0  0  0  0  0  0
    0.6229    1.4303   -0.1520 C   0  0  0  0  0  0  0  0  0  0  0  0
    0.7074    0.0362   -0.0470 C   0  0  0  0  0  0  0  0  0  0  0  0
   -0.4689   -0.7250    0.0830 C   0  0  0  0  0  0  0  0  0  0  0  0
   -1.7053   -0.0838    0.1018 C   0  0  0  0  0  0  0  0  0  0  0  0
   -1.7960    1.3016    0.0035 C   0  0  0  0  0  0  0  0  0  0  0  0
   -2.9071   -0.8692    0.2417 N   0  0  0  0  0  4  0  0  0  0  0  0
    1.9601   -0.6260   -0.0682 N   0  0  0  0  0  0  0  0  0  0  0  0
    3.2282   -0.1214   -0.1822 C   0  0  0  0  0  0  0  0  0  0  0  0
    4.0881   -1.1133   -0.1550 N   0  0  0  0  0  0  0  0  0  0  0  0
    3.3419   -2.2536   -0.0220 N   0  0  0  0  0  0  0  0  0  0  0  0
    2.0486   -1.9709    0.0317 N   0  0  0  0  0  0  0  0  0  0  0  0
   -0.6873    3.1423   -0.2041 H   0  0  0  0  0  0  0  0  0  0  0  0
    1.5043    2.0614   -0.2540 H   0  0  0  0  0  0  0  0  0  0  0  0
   -0.4107   -1.8089    0.1708 H   0  0  0  0  0  0  0  0  0  0  0  0
   -2.7511    1.8211    0.0259 H   0  0  0  0  0  0  0  0  0  0  0  0
   -2.7935   -1.7919   -0.1962 H   0  0  0  0  0  0  0  0  0  0  0  0
   -3.7040   -0.4071   -0.2118 H   0  0  0  0  0  0  0  0  0  0  0  0
   -3.1228   -1.0024    1.2377 H   0  0  0  0  0  0  0  0  0  0  0  0
    3.4731    0.9245   -0.2785 H   0  0  0  0  0  0  0  0  0  0  0  0
  1  2  2  0
  2  3  1  0
  3  4  2  0
  4  5  1  0
  5  6  2  0
  5  7  1  0
  3  8  1  0
  8  9  1  0
  9 10  2  0
 10 11  1  0
 11 12  2  0
  6  1  1  0
 12  8  1  0
  1 13  1  0
  2 14  1  0
  4 15  1  0
  6 16  1  0
  7 17  1  0
  7 18  1  0
  7 19  1  0
  9 20  1  0
M  CHG  1   7   1
M  END
