
     RDKit          3D

 30 30  0  0  0  0  0  0  0  0999 V2000
    2.8334    0.7797   -1.2720 C   0  0  0  0  0  0  0  0  0  0  0  0
    2.1971    0.2053    0.0139 C   0  0  0  0  0  0  0  0  0  0  0  0
    2.4649    1.2196    1.1469 C   0  0  0  0  0  0  0  0  0  0  0  0
    2.9265   -1.1176    0.3328 C   0  0  0  0  0  0  0  0  0  0  0  0
    0.6823   -0.0540   -0.1021 C   0  0  0  0  0  0  0  0  0  0  0  0
   -0.0417    0.1957   -1.2778 C   0  0  0  0  0  0  0  0  0  0  0  0
   -1.4168   -0.0553   -1.3553 C   0  0  0  0  0  0  0  0  0  0  0  0
   -2.1112   -0.5713   -0.2555 C   0  0  0  0  0  0  0  0  0  0  0  0
   -1.4048   -0.8234    0.9246 C   0  0  0  0  0  0  0  0  0  0  0  0
   -0.0313   -0.5703    0.9953 C   0  0  0  0  0  0  0  0  0  0  0  0
   -3.5908   -0.7906   -0.3214 C   0  0  0  0  0  0  0  0  0  0  0  0
   -4.3176    0.4287    0.0928 N   0  0  0  0  0  4  0  0  0  0  0  0
    3.9085    0.9504   -1.1386 H   0  0  0  0  0  0  0  0  0  0  0  0
    2.3865    1.7419   -1.5482 H   0  0  0  0  0  0  0  0  0  0  0  0
    2.7199    0.0940   -2.1198 H   0  0  0  0  0  0  0  0  0  0  0  0
    2.1446    0.8437    2.1247 H   0  0  0  0  0  0  0  0  0  0  0  0
    3.5339    1.4494    1.2271 H   0  0  0  0  0  0  0  0  0  0  0  0
    1.9338    2.1617    0.9664 H   0  0  0  0  0  0  0  0  0  0  0  0
    4.0112   -0.9677    0.3869 H   0  0  0  0  0  0  0  0  0  0  0  0
    2.6139   -1.5423    1.2930 H   0  0  0  0  0  0  0  0  0  0  0  0
    2.7318   -1.8713   -0.4393 H   0  0  0  0  0  0  0  0  0  0  0  0
    0.4486    0.5864   -2.1672 H   0  0  0  0  0  0  0  0  0  0  0  0
   -1.9224    0.1502   -2.2978 H   0  0  0  0  0  0  0  0  0  0  0  0
   -1.8981   -1.2315    1.8054 H   0  0  0  0  0  0  0  0  0  0  0  0
    0.4852   -0.7906    1.9292 H   0  0  0  0  0  0  0  0  0  0  0  0
   -3.9100   -1.5989    0.3447 H   0  0  0  0  0  0  0  0  0  0  0  0
   -3.9189   -1.0327   -1.3376 H   0  0  0  0  0  0  0  0  0  0  0  0
   -4.0662    1.2189   -0.5135 H   0  0  0  0  0  0  0  0  0  0  0  0
   -4.0579    0.6923    1.0511 H   0  0  0  0  0  0  0  0  0  0  0  0
   -5.3345    0.2995    0.0547 H   0  0  0  0  0  0  0  0  0  0  0  0
  1  2  1  0
  2  3  1  0
  2  4  1  0
  2  5  1  0
  5  6  2  0
  6  7  1  0
  7  8  2  0
  8  9  1  0
  9 10  2  0
  8 11  1  0
 11 12  1  0
 10  5  1  0
  1 13  1  0
  1 14  1  0
  1 15  1  0
  3 16  1  0
  3 17  1  0
  3 18  1  0
  4 19  1  0
  4 20  1  0
  4 21  1  0
  6 22  1  0
  7 23  1  0
  9 24  1  0
 10 25  1  0
 11 26  1  0
 11 27  1  0
 12 28  1  0
 12 29  1  0
 12 30  1  0
M  CHG  1  12   1
M  END
