
     RDKit          3D

 30 30  0  0  0  0  0  0  0  0999 V2000
   -2.7223    0.3923    1.6598 C   0  0  0  0  0  0  0  0  0  0  0  0
   -2.1482    0.4789    0.2275 C   0  0  0  0  0  0  0  0  0  0  0  0
   -3.0436   -0.3950   -0.6771 C   0  0  0  0  0  0  0  0  0  0  0  0
   -2.2589    1.9529   -0.2191 C   0  0  0  0  0  0  0  0  0  0  0  0
   -0.6842    0.0113    0.1132 C   0  0  0  0  0  0  0  0  0  0  0  0
   -0.0287    0.0419   -1.1317 C   0  0  0  0  0  0  0  0  0  0  0  0
    1.2969   -0.3799   -1.2741 C   0  0  0  0  0  0  0  0  0  0  0  0
    2.0116   -0.8536   -0.1694 C   0  0  0  0  0  0  0  0  0  0  0  0
    1.3752   -0.8880    1.0762 C   0  0  0  0  0  0  0  0  0  0  0  0
    0.0477   -0.4643    1.2118 C   0  0  0  0  0  0  0  0  0  0  0  0
    3.4469   -1.2573   -0.3047 C   0  0  0  0  0  0  0  0  0  0  0  0
    4.3378   -0.0980   -0.0833 N   0  0  0  0  0  4  0  0  0  0  0  0
   -2.7157   -0.6374    2.0357 H   0  0  0  0  0  0  0  0  0  0  0  0
   -2.1546    1.0158    2.3603 H   0  0  0  0  0  0  0  0  0  0  0  0
   -3.7623    0.7388    1.6901 H   0  0  0  0  0  0  0  0  0  0  0  0
   -4.0973   -0.1055   -0.5884 H   0  0  0  0  0  0  0  0  0  0  0  0
   -2.7755   -0.3067   -1.7356 H   0  0  0  0  0  0  0  0  0  0  0  0
   -2.9646   -1.4543   -0.4050 H   0  0  0  0  0  0  0  0  0  0  0  0
   -3.2858    2.3219   -0.1134 H   0  0  0  0  0  0  0  0  0  0  0  0
   -1.6089    2.5975    0.3843 H   0  0  0  0  0  0  0  0  0  0  0  0
   -1.9762    2.0908   -1.2685 H   0  0  0  0  0  0  0  0  0  0  0  0
   -0.5550    0.3937   -2.0187 H   0  0  0  0  0  0  0  0  0  0  0  0
    1.7450   -0.3402   -2.2657 H   0  0  0  0  0  0  0  0  0  0  0  0
    1.8884   -1.2555    1.9637 H   0  0  0  0  0  0  0  0  0  0  0  0
   -0.3999   -0.5236    2.2018 H   0  0  0  0  0  0  0  0  0  0  0  0
    3.7231   -2.0215    0.4292 H   0  0  0  0  0  0  0  0  0  0  0  0
    3.6653   -1.6461   -1.3047 H   0  0  0  0  0  0  0  0  0  0  0  0
    4.1851    0.2976    0.8523 H   0  0  0  0  0  0  0  0  0  0  0  0
    4.1314    0.6466   -0.7603 H   0  0  0  0  0  0  0  0  0  0  0  0
    5.3273   -0.3534   -0.1715 H   0  0  0  0  0  0  0  0  0  0  0  0
  1  2  1  0
  2  3  1  0
  2  4  1  0
  2  5  1  0
  5  6  2  0
  6  7  1  0
  7  8  2  0
  8  9  1  0
  9 10  2  0
  8 11  1  0
 11 12  1  0
 10  5  1  0
  1 13  1  0
  1 14  1  0
  1 15  1  0
  3 16  1  0
  3 17  1  0
  3 18  1  0
  4 19  1  0
  4 20  1  0
  4 21  1  0
  6 22  1  0
  7 23  1  0
  9 24  1  0
 10 25  1  0
 11 26  1  0
 11 27  1  0
 12 28  1  0
 12 29  1  0
 12 30  1  0
M  CHG  1  12   1
M  END
