
     RDKit          3D

 18 18  0  0  0  0  0  0  0  0999 V2000
    2.9606    0.7316    0.2171 C   0  0  0  0  0  0  0  0  0  0  0  0
    3.1504   -0.5681   -0.1949 C   0  0  0  0  0  0  0  0  0  0  0  0
    1.6888   -1.4518   -0.2185 S   0  0  0  0  0  0  0  0  0  0  0  0
    0.7860   -0.0961    0.3166 C   0  0  0  0  0  0  0  0  0  0  0  0
    1.5940    1.0053    0.5162 C   0  0  0  0  0  0  0  0  0  0  0  0
   -0.6922   -0.2147    0.5153 C   0  0  0  0  0  0  0  0  0  0  0  0
   -1.4388   -0.1023   -0.8131 C   0  0  0  0  0  0  0  0  0  0  0  0
   -2.9045   -0.2395   -0.5942 N   0  0  0  0  0  4  0  0  0  0  0  0
    3.7684    1.4493    0.3067 H   0  0  0  0  0  0  0  0  0  0  0  0
    4.0815   -1.0428   -0.4768 H   0  0  0  0  0  0  0  0  0  0  0  0
    1.2384    1.9674    0.8675 H   0  0  0  0  0  0  0  0  0  0  0  0
   -0.9318   -1.1673    1.0048 H   0  0  0  0  0  0  0  0  0  0  0  0
   -1.0329    0.5752    1.1969 H   0  0  0  0  0  0  0  0  0  0  0  0
   -1.2817    0.8716   -1.2880 H   0  0  0  0  0  0  0  0  0  0  0  0
   -1.1567   -0.8918   -1.5167 H   0  0  0  0  0  0  0  0  0  0  0  0
   -3.4132   -0.1645   -1.4857 H   0  0  0  0  0  0  0  0  0  0  0  0
   -3.2721    0.4920    0.0288 H   0  0  0  0  0  0  0  0  0  0  0  0
   -3.1442   -1.1534   -0.1860 H   0  0  0  0  0  0  0  0  0  0  0  0
  1  2  2  0
  2  3  1  0
  3  4  1  0
  4  5  2  0
  4  6  1  0
  6  7  1  0
  7  8  1  0
  5  1  1  0
  1  9  1  0
  2 10  1  0
  5 11  1  0
  6 12  1  0
  6 13  1  0
  7 14  1  0
  7 15  1  0
  8 16  1  0
  8 17  1  0
  8 18  1  0
M  CHG  1   8   1
M  END
