
     RDKit          3D

 18 18  0  0  0  0  0  0  0  0999 V2000
    3.0500   -0.3133    0.0940 C   0  0  0  0  0  0  0  0  0  0  0  0
    3.0174    1.0381    0.3544 C   0  0  0  0  0  0  0  0  0  0  0  0
    1.4388    1.5826    0.7137 S   0  0  0  0  0  0  0  0  0  0  0  0
    0.7827    0.0110    0.5156 C   0  0  0  0  0  0  0  0  0  0  0  0
    1.7587   -0.9093    0.1898 C   0  0  0  0  0  0  0  0  0  0  0  0
   -0.6839   -0.2153    0.7065 C   0  0  0  0  0  0  0  0  0  0  0  0
   -1.4726    0.1972   -0.5356 C   0  0  0  0  0  0  0  0  0  0  0  0
   -2.9287   -0.0206   -0.3178 N   0  0  0  0  0  4  0  0  0  0  0  0
    3.9615   -0.8492   -0.1462 H   0  0  0  0  0  0  0  0  0  0  0  0
    3.8492    1.7308    0.3574 H   0  0  0  0  0  0  0  0  0  0  0  0
    1.5729   -1.9657    0.0319 H   0  0  0  0  0  0  0  0  0  0  0  0
   -0.8642   -1.2764    0.9213 H   0  0  0  0  0  0  0  0  0  0  0  0
   -1.0405    0.3405    1.5831 H   0  0  0  0  0  0  0  0  0  0  0  0
   -1.3514    1.2590   -0.7715 H   0  0  0  0  0  0  0  0  0  0  0  0
   -1.1935   -0.3972   -1.4117 H   0  0  0  0  0  0  0  0  0  0  0  0
   -3.1474   -1.0076   -0.1274 H   0  0  0  0  0  0  0  0  0  0  0  0
   -3.2836    0.5401    0.4690 H   0  0  0  0  0  0  0  0  0  0  0  0
   -3.4656    0.2552   -1.1513 H   0  0  0  0  0  0  0  0  0  0  0  0
  1  2  2  0
  2  3  1  0
  3  4  1  0
  4  5  2  0
  4  6  1  0
  6  7  1  0
  7  8  1  0
  5  1  1  0
  1  9  1  0
  2 10  1  0
  5 11  1  0
  6 12  1  0
  6 13  1  0
  7 14  1  0
  7 15  1  0
  8 16  1  0
  8 17  1  0
  8 18  1  0
M  CHG  1   8   1
M  END
