
     RDKit          3D

 21 21  0  0  0  0  0  0  0  0999 V2000
    0.0187    0.1989   -1.3218 C   0  0  0  0  0  0  0  0  0  0  0  0
   -0.8284    0.0568   -0.2152 C   0  0  0  0  0  0  0  0  0  0  0  0
   -0.2737   -0.0843    1.0643 C   0  0  0  0  0  0  0  0  0  0  0  0
    1.1158   -0.0713    1.2317 C   0  0  0  0  0  0  0  0  0  0  0  0
    1.9704    0.0842    0.1300 C   0  0  0  0  0  0  0  0  0  0  0  0
    1.4071    0.2096   -1.1479 C   0  0  0  0  0  0  0  0  0  0  0  0
    3.4752    0.0736    0.3145 C   0  0  0  0  0  0  0  0  0  0  0  0
    3.8584    0.6070    1.5053 F   0  0  0  0  0  0  0  0  0  0  0  0
    4.1306    0.7767   -0.6465 F   0  0  0  0  0  0  0  0  0  0  0  0
    3.9793   -1.1877    0.2804 F   0  0  0  0  0  0  0  0  0  0  0  0
   -2.2938    0.0368   -0.3944 C   0  0  0  0  0  0  0  0  0  0  0  0
   -2.9726    0.4429   -1.3981 N   0  0  0  0  0  0  0  0  0  0  0  0
   -3.1995   -0.4750    0.5835 N   0  0  0  0  0  4  0  0  0  0  0  0
   -0.3644    0.2843   -2.3365 H   0  0  0  0  0  0  0  0  0  0  0  0
   -0.8853   -0.1922    1.9562 H   0  0  0  0  0  0  0  0  0  0  0  0
    1.5402   -0.1781    2.2319 H   0  0  0  0  0  0  0  0  0  0  0  0
    2.0562    0.3154   -2.0194 H   0  0  0  0  0  0  0  0  0  0  0  0
   -2.3864    0.8520   -2.1377 H   0  0  0  0  0  0  0  0  0  0  0  0
   -3.2765    0.1549    1.3821 H   0  0  0  0  0  0  0  0  0  0  0  0
   -2.9712   -1.4332    0.8496 H   0  0  0  0  0  0  0  0  0  0  0  0
   -4.1002   -0.4713    0.0881 H   0  0  0  0  0  0  0  0  0  0  0  0
  1  2  2  0
  2  3  1  0
  3  4  2  0
  4  5  1  0
  5  6  2  0
  5  7  1  0
  7  8  1  0
  7  9  1  0
  7 10  1  0
  2 11  1  0
 11 12  2  3
 11 13  1  0
  6  1  1  0
  1 14  1  0
  3 15  1  0
  4 16  1  0
  6 17  1  0
 12 18  1  0
 13 19  1  0
 13 20  1  0
 13 21  1  0
M  CHG  1  13   1
M  END
