
     RDKit          3D

 24 24  0  0  0  0  0  0  0  0999 V2000
   -2.3290   -0.0762    0.1072 C   0  0  0  0  0  0  0  0  0  0  0  0
   -1.5904   -1.2413    0.7683 C   0  0  0  0  0  0  0  0  0  0  0  0
   -0.0685   -1.0673    0.7944 C   0  0  0  0  0  0  0  0  0  0  0  0
    0.4271   -0.2426   -0.3995 C   0  0  0  0  0  0  0  0  0  0  0  0
   -0.1791    1.1752   -0.3767 C   0  0  0  0  0  0  0  0  0  0  0  0
   -1.5713    1.2349    0.2602 C   0  0  0  0  0  0  0  0  0  0  0  0
    1.9538   -0.2313   -0.5390 C   0  0  0  0  0  0  0  0  0  0  0  0
    2.6274    0.2813    0.6777 N   0  0  0  0  0  4  0  0  0  0  0  0
   -2.4646   -0.2902   -0.9605 H   0  0  0  0  0  0  0  0  0  0  0  0
   -3.3336    0.0126    0.5361 H   0  0  0  0  0  0  0  0  0  0  0  0
   -1.8489   -2.1662    0.2386 H   0  0  0  0  0  0  0  0  0  0  0  0
   -1.9462   -1.3704    1.7977 H   0  0  0  0  0  0  0  0  0  0  0  0
    0.2098   -0.5700    1.7321 H   0  0  0  0  0  0  0  0  0  0  0  0
    0.4073   -2.0550    0.8102 H   0  0  0  0  0  0  0  0  0  0  0  0
    0.0494   -0.7351   -1.3075 H   0  0  0  0  0  0  0  0  0  0  0  0
    0.4662    1.8862    0.1502 H   0  0  0  0  0  0  0  0  0  0  0  0
   -0.2399    1.5383   -1.4108 H   0  0  0  0  0  0  0  0  0  0  0  0
   -1.4700    1.4669    1.3281 H   0  0  0  0  0  0  0  0  0  0  0  0
   -2.1428    2.0579   -0.1839 H   0  0  0  0  0  0  0  0  0  0  0  0
    2.3405   -1.2425   -0.7006 H   0  0  0  0  0  0  0  0  0  0  0  0
    2.2739    0.4060   -1.3694 H   0  0  0  0  0  0  0  0  0  0  0  0
    2.4372   -0.3067    1.4996 H   0  0  0  0  0  0  0  0  0  0  0  0
    2.3436    1.2418    0.9084 H   0  0  0  0  0  0  0  0  0  0  0  0
    3.6482    0.2936    0.5497 H   0  0  0  0  0  0  0  0  0  0  0  0
  1  2  1  0
  2  3  1  0
  3  4  1  0
  4  5  1  0
  5  6  1  0
  4  7  1  0
  7  8  1  0
  6  1  1  0
  1  9  1  0
  1 10  1  0
  2 11  1  0
  2 12  1  0
  3 13  1  0
  3 14  1  0
  4 15  1  0
  5 16  1  0
  5 17  1  0
  6 18  1  0
  6 19  1  0
  7 20  1  0
  7 21  1  0
  8 22  1  0
  8 23  1  0
  8 24  1  0
M  CHG  1   8   1
M  END
