
     RDKit          3D

 17 16  0  0  0  0  0  0  0  0999 V2000
   -0.0259   -0.2400    0.1898 C   0  0  0  0  0  0  0  0  0  0  0  0
   -1.1996    0.3895   -0.5692 C   0  0  0  0  0  0  0  0  0  0  0  0
   -2.4701   -0.3102   -0.2472 N   0  0  0  0  0  4  0  0  0  0  0  0
    1.2926    0.4723   -0.1327 C   0  0  0  0  0  0  0  0  0  0  0  0
    2.4206   -0.1478    0.6091 N   0  0  0  0  0  4  0  0  0  0  0  0
    0.0554   -1.3021   -0.0729 H   0  0  0  0  0  0  0  0  0  0  0  0
   -0.2165   -0.1911    1.2691 H   0  0  0  0  0  0  0  0  0  0  0  0
   -1.0645    0.3128   -1.6522 H   0  0  0  0  0  0  0  0  0  0  0  0
   -1.3400    1.4386   -0.2923 H   0  0  0  0  0  0  0  0  0  0  0  0
   -2.4751   -1.3062   -0.5157 H   0  0  0  0  0  0  0  0  0  0  0  0
   -2.7314   -0.2588    0.7493 H   0  0  0  0  0  0  0  0  0  0  0  0
   -3.2616    0.1148   -0.7595 H   0  0  0  0  0  0  0  0  0  0  0  0
    1.5384    0.3994   -1.1963 H   0  0  0  0  0  0  0  0  0  0  0  0
    1.2628    1.5251    0.1636 H   0  0  0  0  0  0  0  0  0  0  0  0
    3.3099    0.3331    0.3912 H   0  0  0  0  0  0  0  0  0  0  0  0
    2.3244   -0.0910    1.6346 H   0  0  0  0  0  0  0  0  0  0  0  0
    2.5807   -1.1382    0.3695 H   0  0  0  0  0  0  0  0  0  0  0  0
  1  2  1  0
  2  3  1  0
  1  4  1  0
  4  5  1  0
  1  6  1  0
  1  7  1  0
  2  8  1  0
  2  9  1  0
  3 10  1  0
  3 11  1  0
  3 12  1  0
  4 13  1  0
  4 14  1  0
  5 15  1  0
  5 16  1  0
  5 17  1  0
M  CHG  2   3   1   5   1
M  END
